*SPEF "ieee 1481-1999"
*DESIGN "DigitalSine"
*DATE "17:20:49 Monday December 15, 2025"
*VENDOR "The OpenROAD Project"
*PROGRAM "OpenROAD"
*VERSION "341650e72dad0dc8571822ff8c5d9c5e365327f7"
*DESIGN_FLOW "NAME_SCOPE LOCAL" "PIN_CAP NONE"
*DIVIDER /
*DELIMITER :
*BUS_DELIMITER []
*T_UNIT 1 NS
*C_UNIT 1 PF
*R_UNIT 1 OHM
*L_UNIT 1 HENRY

*NAME_MAP
*3 clk
*4 rst
*5 sign
*6 signB
*7 sine_out[0]
*8 sine_out[10]
*9 sine_out[11]
*10 sine_out[12]
*11 sine_out[13]
*12 sine_out[14]
*13 sine_out[15]
*14 sine_out[16]
*15 sine_out[17]
*16 sine_out[18]
*17 sine_out[19]
*18 sine_out[1]
*19 sine_out[20]
*20 sine_out[21]
*21 sine_out[22]
*22 sine_out[23]
*23 sine_out[24]
*24 sine_out[25]
*25 sine_out[26]
*26 sine_out[27]
*27 sine_out[28]
*28 sine_out[29]
*29 sine_out[2]
*30 sine_out[30]
*31 sine_out[31]
*32 sine_out[32]
*33 sine_out[3]
*34 sine_out[4]
*35 sine_out[5]
*36 sine_out[6]
*37 sine_out[7]
*38 sine_out[8]
*39 sine_out[9]
*40 CTRL\.P0
*41 CTRL\.P1
*42 CTRL\.S0
*43 DPATH\.SUM\.Cout0
*44 DPATH\.SUM\.fa_1\.A
*45 DPATH\.SUM\.fa_1\.S
*46 DPATH\.SUM\.fa_2\.A
*47 DPATH\.SUM\.fa_2\.S
*48 DPATH\.SUM\.fa_3\.A
*49 DPATH\.SUM\.fa_3\.S
*50 DPATH\.SUM\.fa_4\.A
*51 DPATH\.SUM\.fa_4\.S
*52 DPATH\.SUM\.fa_5\.A
*53 DPATH\.SUM\.fa_5\.S
*54 DPATH\.SUM\.fa_6\.A
*55 DPATH\.SUM\.fa_6\.S
*56 DPATH\.SUM\.ha_0\.S
*57 _000_
*58 _001_
*59 _002_
*60 _003_
*61 _004_
*62 _005_
*63 _006_
*64 _007_
*65 _008_
*66 _009_
*67 _010_
*68 _011_
*69 _012_
*70 _013_
*71 _014_
*72 _015_
*73 _016_
*74 _017_
*75 _018_
*76 _019_
*77 _020_
*78 _021_
*79 _022_
*80 _023_
*81 _024_
*82 _025_
*83 _026_
*84 _027_
*85 _028_
*86 _029_
*87 _030_
*88 _031_
*89 _032_
*90 _033_
*91 _034_
*92 _035_
*93 _036_
*94 _037_
*95 _038_
*96 _039_
*97 _040_
*98 _041_
*99 _042_
*100 _043_
*101 _044_
*102 _045_
*103 _046_
*104 _047_
*105 _048_
*106 _049_
*107 _050_
*108 _051_
*109 _052_
*110 _053_
*111 _054_
*112 _055_
*113 _056_
*114 _057_
*115 _058_
*116 _059_
*117 _060_
*118 _061_
*119 _062_
*120 _063_
*121 _064_
*122 _065_
*123 _066_
*124 _067_
*125 _068_
*126 _069_
*127 _070_
*128 _071_
*129 _072_
*130 _073_
*131 _074_
*132 _075_
*133 _076_
*134 _077_
*135 _078_
*136 _079_
*137 _080_
*138 _081_
*139 _082_
*140 _083_
*141 _084_
*142 _085_
*143 _086_
*144 _087_
*145 _088_
*146 _089_
*147 _090_
*148 _091_
*149 _092_
*150 _093_
*151 _094_
*152 _095_
*153 _096_
*154 _097_
*155 _098_
*156 _099_
*157 _100_
*158 _101_
*159 _102_
*160 _103_
*161 _104_
*162 _105_
*163 _106_
*164 _107_
*165 _108_
*166 _109_
*167 _110_
*168 _111_
*169 _112_
*170 _113_
*171 _114_
*172 _115_
*173 _116_
*174 _117_
*175 _118_
*176 _119_
*177 _120_
*178 _121_
*179 _122_
*180 _123_
*181 _124_
*182 clknet_0_clk
*183 clknet_1_0__leaf_clk
*184 clknet_1_1__leaf_clk
*185 net1
*186 net10
*187 net11
*188 net12
*189 net13
*190 net14
*191 net15
*192 net16
*193 net17
*194 net18
*195 net19
*196 net2
*197 net20
*198 net21
*199 net22
*200 net23
*201 net24
*202 net25
*203 net26
*204 net27
*205 net28
*206 net29
*207 net3
*208 net30
*209 net31
*210 net32
*211 net33
*212 net34
*213 net35
*214 net36
*215 net37
*216 net38
*217 net39
*218 net4
*219 net5
*220 net53
*221 net54
*222 net55
*223 net56
*224 net57
*225 net58
*226 net59
*227 net6
*228 net60
*229 net61
*230 net62
*231 net63
*232 net64
*233 net65
*234 net66
*235 net67
*236 net68
*237 net69
*238 net7
*239 net70
*240 net71
*241 net72
*242 net73
*243 net74
*244 net75
*245 net76
*246 net77
*247 net8
*248 net9
*249 FILLER_0_0
*250 FILLER_0_101
*251 FILLER_0_108
*252 FILLER_0_115
*253 FILLER_0_122
*254 FILLER_0_14
*255 FILLER_0_21
*256 FILLER_0_31
*257 FILLER_0_38
*258 FILLER_0_45
*259 FILLER_0_60
*260 FILLER_0_7
*261 FILLER_0_94
*262 FILLER_10_0
*263 FILLER_10_101
*264 FILLER_10_121
*265 FILLER_10_43
*266 FILLER_10_76
*267 FILLER_10_85
*268 FILLER_11_0
*269 FILLER_11_108
*270 FILLER_11_2
*271 FILLER_11_20
*272 FILLER_11_27
*273 FILLER_11_37
*274 FILLER_11_49
*275 FILLER_11_73
*276 FILLER_11_75
*277 FILLER_11_85
*278 FILLER_11_96
*279 FILLER_12_0
*280 FILLER_12_54
*281 FILLER_12_56
*282 FILLER_12_76
*283 FILLER_12_87
*284 FILLER_12_89
*285 FILLER_13_109
*286 FILLER_13_15
*287 FILLER_13_31
*288 FILLER_13_46
*289 FILLER_13_48
*290 FILLER_13_63
*291 FILLER_13_70
*292 FILLER_13_72
*293 FILLER_13_78
*294 FILLER_14_0
*295 FILLER_14_120
*296 FILLER_14_122
*297 FILLER_14_2
*298 FILLER_14_98
*299 FILLER_1_0
*300 FILLER_1_104
*301 FILLER_1_111
*302 FILLER_1_118
*303 FILLER_1_14
*304 FILLER_1_18
*305 FILLER_1_7
*306 FILLER_2_106
*307 FILLER_2_12
*308 FILLER_2_122
*309 FILLER_2_19
*310 FILLER_2_36
*311 FILLER_2_5
*312 FILLER_2_93
*313 FILLER_3_0
*314 FILLER_3_15
*315 FILLER_3_19
*316 FILLER_3_53
*317 FILLER_3_57
*318 FILLER_4_0
*319 FILLER_4_15
*320 FILLER_4_4
*321 FILLER_4_40
*322 FILLER_4_68
*323 FILLER_5_0
*324 FILLER_5_28
*325 FILLER_5_73
*326 FILLER_6_0
*327 FILLER_6_24
*328 FILLER_6_4
*329 FILLER_6_47
*330 FILLER_6_56
*331 FILLER_6_71
*332 FILLER_6_82
*333 FILLER_7_0
*334 FILLER_7_22
*335 FILLER_7_28
*336 FILLER_7_40
*337 FILLER_7_87
*338 FILLER_8_0
*339 FILLER_8_24
*340 FILLER_8_40
*341 FILLER_8_67
*342 FILLER_9_0
*343 FILLER_9_104
*344 FILLER_9_62
*345 FILLER_9_73
*346 _125_
*347 _126_
*348 _127_
*349 _128_
*350 _129_
*351 _130_
*352 _131_
*353 _132_
*354 _133_
*355 _134_
*356 _135_
*357 _136_
*358 _137_
*359 _138_
*360 _139_
*361 _140_
*362 _141_
*363 _142_
*364 _143_
*365 _144_
*366 _145_
*367 _146_
*368 _147_
*369 _148_
*370 _149_
*371 _150_
*372 _151_
*373 _152_
*374 _153_
*375 _154_
*376 _155_
*377 _156_
*378 _157_
*379 _158_
*380 _159_
*381 _160_
*382 _161_
*383 _162_
*384 _163_
*385 _164_
*386 _165_
*387 _166_
*388 _167_
*389 _168_
*390 _169_
*391 _170_
*392 _171_
*393 _172_
*394 _173_
*395 _174_
*396 _175_
*397 _176_
*398 _177_
*399 _178_
*400 _179_
*401 _180_
*402 _181_
*403 _182_
*404 _183_
*405 _184_
*406 _185_
*407 _186_
*408 _187_
*409 _188_
*410 _189_
*411 _190_
*412 _191_
*413 _192_
*414 _193_
*415 _194_
*416 _195_
*417 _196_
*418 _197_
*419 _198_
*420 _199_
*421 _200_
*422 _201_
*423 _202_
*424 _203_
*425 _204_
*426 _205_
*427 _206_
*428 _207_
*429 _208_
*430 _209_
*431 _210_
*432 _211_
*433 _212_
*434 _213_
*435 _214_
*436 _215_
*437 _216_
*438 _217_
*439 _218_
*440 _219_
*441 _220_
*442 _221_
*443 _222_
*444 _223_
*445 _224_
*446 _225_
*447 _226_
*448 _227_
*449 _228_
*450 _229_
*451 _230_
*452 _231_
*453 _232_
*454 _233_
*455 _234_
*456 _235_
*457 _236_
*458 _237_
*459 _238_
*460 _239_
*461 _240_
*462 _241_
*463 _242_
*464 _243_
*465 _244_
*466 _245_
*467 _246_
*468 _247_
*469 _248_
*470 _249_
*471 _250_
*472 _251_
*473 _252_
*474 _253_
*475 _254_
*476 _255_
*477 _256_
*478 _257_
*479 _258_
*480 _259_
*481 _260_
*482 _261_
*483 _262_
*484 _263_
*485 _264_
*486 _265_
*487 _266_
*488 _267_
*489 _268_
*490 _269_
*491 _270_
*492 _271_
*493 _272_
*494 _273_
*495 _274_
*496 _275_
*497 _276_
*498 _277_
*499 _278_
*500 _279_
*501 _280_
*502 _281_
*503 _282_
*504 _283_
*505 _284_
*506 _285_
*507 _286_
*508 _287_
*509 _288_
*510 _289_
*511 _290_
*512 _291_
*513 _292_
*514 _293_
*515 _294_
*516 _295_
*517 _296_
*518 _297_
*519 _298_
*520 _299_
*521 _300_
*522 _301_
*523 clkbuf_0_clk
*524 clkbuf_1_0__f_clk
*525 clkbuf_1_1__f_clk
*526 clkload0
*527 fanout37
*528 fanout53
*529 fanout54
*530 fanout55
*531 fanout56
*532 fanout57
*533 fanout58
*534 fanout59
*535 fanout60
*536 fanout61
*537 fanout62
*538 fanout63
*539 fanout64
*540 fanout65
*541 fanout66
*542 fanout67
*543 fanout68
*544 fanout69
*545 fanout70
*546 fanout71
*547 fanout72
*548 fanout73
*549 fanout74
*550 fanout75
*551 fanout76
*552 fanout77
*553 hold1
*554 hold2
*555 input1
*556 output10
*557 output11
*558 output12
*559 output13
*560 output14
*561 output15
*562 output16
*563 output17
*564 output18
*565 output19
*566 output2
*567 output20
*568 output21
*569 output22
*570 output23
*571 output24
*572 output25
*573 output26
*574 output27
*575 output28
*576 output29
*577 output3
*578 output30
*579 output31
*580 output32
*581 output33
*582 output34
*583 output35
*584 output36
*585 output4
*586 output5
*587 output6
*588 output7
*589 output8
*590 output9

*PORTS
clk I
rst I
sign O
signB O
sine_out[0] O
sine_out[10] O
sine_out[11] O
sine_out[12] O
sine_out[13] O
sine_out[14] O
sine_out[15] O
sine_out[16] O
sine_out[17] O
sine_out[18] O
sine_out[19] O
sine_out[1] O
sine_out[20] O
sine_out[21] O
sine_out[22] O
sine_out[23] O
sine_out[24] O
sine_out[25] O
sine_out[26] O
sine_out[27] O
sine_out[28] O
sine_out[29] O
sine_out[2] O
sine_out[30] O
sine_out[31] O
sine_out[32] O
sine_out[3] O
sine_out[4] O
sine_out[5] O
sine_out[6] O
sine_out[7] O
sine_out[8] O
sine_out[9] O

*D_NET *3 0.00922116
*CONN
*P clk I
*I *523:A I *D sg13g2_buf_8
*CAP
1 clk 0.00196588
2 *523:A 0
3 *3:13 0.00120119
4 *3:9 0.00316706
5 *3:13 *421:B 0
6 *3:13 *424:A2 0
7 *3:13 *555:A 0
8 *3:13 *52:27 0
9 *3:13 *62:8 0.000713172
10 *3:13 *91:14 0
11 *3:13 *185:8 0
12 *3:13 *215:14 0.000448012
13 *3:13 *215:16 0.00172585
14 *3:13 *224:8 0
*RES
1 clk *3:9 42.1785 
2 *3:9 *3:13 35.1822 
3 *3:13 *523:A 40 
*END

*D_NET *4 0.000728108
*CONN
*P rst I
*I *555:A I *D sg13g2_buf_1
*CAP
1 rst 0.000364054
2 *555:A 0.000364054
3 *555:A *527:A 0
4 *3:13 *555:A 0
*RES
1 rst *555:A 44.1638 
*END

*D_NET *5 0.000809665
*CONN
*P sign O
*I *566:X O *D sg13g2_buf_2
*CAP
1 sign 0.000404832
2 *566:X 0.000404832
3 sign *566:A 0
*RES
1 *566:X sign 44.5938 
*END

*D_NET *6 0.000632131
*CONN
*P signB O
*I *577:X O *D sg13g2_buf_2
*CAP
1 signB 0.000316065
2 *577:X 0.000316065
3 signB *7:10 0
4 signB *208:26 0
*RES
1 *577:X signB 43.7286 
*END

*D_NET *7 0.00293096
*CONN
*P sine_out[0] O
*I *585:X O *D sg13g2_buf_2
*CAP
1 sine_out[0] 0.000868845
2 *585:X 0.000491757
3 *7:10 0.0013606
4 sine_out[0] sine_out[1] 0
5 *7:10 *573:A 0
6 *7:10 *579:A 0.000209756
7 *7:10 *207:22 0
8 *7:10 *212:10 0
9 signB *7:10 0
*RES
1 *585:X *7:10 45.2118 
2 *7:10 sine_out[0] 30.488 
*END

*D_NET *8 0.00187009
*CONN
*P sine_out[10] O
*I *586:X O *D sg13g2_buf_2
*CAP
1 sine_out[10] 0.000935045
2 *586:X 0.000935045
3 sine_out[10] sine_out[11] 0
4 sine_out[10] sine_out[9] 0
5 sine_out[10] *586:A 0
*RES
1 *586:X sine_out[10] 26.065 
*END

*D_NET *9 0.00251752
*CONN
*P sine_out[11] O
*I *587:X O *D sg13g2_buf_2
*CAP
1 sine_out[11] 0.00123489
2 *587:X 0.00123489
3 sine_out[11] sine_out[12] 0
4 sine_out[11] *586:A 0
5 sine_out[11] *587:A 4.77425e-05
6 sine_out[11] *187:12 0
7 sine_out[11] *248:18 0
8 sine_out[10] sine_out[11] 0
*RES
1 *587:X sine_out[11] 33.2896 
*END

*D_NET *10 0.00243159
*CONN
*P sine_out[12] O
*I *588:X O *D sg13g2_buf_2
*CAP
1 sine_out[12] 0.000951311
2 *588:X 0.000108823
3 *10:8 0.00106013
4 sine_out[12] sine_out[13] 0
5 sine_out[12] *589:A 8.00842e-05
6 *10:8 *589:A 0
7 *10:8 *187:12 0.000231236
8 sine_out[11] sine_out[12] 0
*RES
1 *588:X *10:8 41.0918 
2 *10:8 sine_out[12] 30.0554 
*END

*D_NET *11 0.00200853
*CONN
*P sine_out[13] O
*I *589:X O *D sg13g2_buf_2
*CAP
1 sine_out[13] 0.000996553
2 *589:X 0.000996553
3 sine_out[13] sine_out[14] 0
4 sine_out[13] *248:18 1.54285e-05
5 sine_out[12] sine_out[13] 0
*RES
1 *589:X sine_out[13] 31.106 
*END

*D_NET *12 0.00188555
*CONN
*P sine_out[14] O
*I *590:X O *D sg13g2_buf_2
*CAP
1 sine_out[14] 0.000942774
2 *590:X 0.000942774
3 sine_out[14] sine_out[15] 0
4 sine_out[14] *248:18 0
5 sine_out[13] sine_out[14] 0
*RES
1 *590:X sine_out[14] 26.2242 
*END

*D_NET *13 0.00186333
*CONN
*P sine_out[15] O
*I *556:X O *D sg13g2_buf_2
*CAP
1 sine_out[15] 0.000931664
2 *556:X 0.000931664
3 sine_out[15] sine_out[16] 0
4 sine_out[15] *373:A 0
5 sine_out[14] sine_out[15] 0
*RES
1 *556:X sine_out[15] 30.4056 
*END

*D_NET *14 0.00180697
*CONN
*P sine_out[16] O
*I *557:X O *D sg13g2_buf_2
*CAP
1 sine_out[16] 0.000903487
2 *557:X 0.000903487
3 sine_out[16] sine_out[17] 0
4 sine_out[15] sine_out[16] 0
*RES
1 *557:X sine_out[16] 30.0554 
*END

*D_NET *15 0.00180933
*CONN
*P sine_out[17] O
*I *558:X O *D sg13g2_buf_2
*CAP
1 sine_out[17] 0.000904664
2 *558:X 0.000904664
3 sine_out[17] sine_out[18] 0
4 sine_out[17] *558:A 0
5 sine_out[16] sine_out[17] 0
*RES
1 *558:X sine_out[17] 30.0554 
*END

*D_NET *16 0.00183983
*CONN
*P sine_out[18] O
*I *559:X O *D sg13g2_buf_2
*CAP
1 sine_out[18] 0.000919917
2 *559:X 0.000919917
3 sine_out[18] sine_out[19] 0
4 sine_out[18] *558:A 0
5 sine_out[18] *560:A 0
6 sine_out[17] sine_out[18] 0
*RES
1 *559:X sine_out[18] 30.4056 
*END

*D_NET *17 0.00194765
*CONN
*P sine_out[19] O
*I *560:X O *D sg13g2_buf_2
*CAP
1 sine_out[19] 0.000973825
2 *560:X 0.000973825
3 sine_out[19] sine_out[20] 0
4 sine_out[19] *560:A 0
5 sine_out[18] sine_out[19] 0
*RES
1 *560:X sine_out[19] 31.106 
*END

*D_NET *18 0.00315051
*CONN
*P sine_out[1] O
*I *561:X O *D sg13g2_buf_2
*CAP
1 sine_out[1] 0.00134924
2 *561:X 0.00134924
3 sine_out[1] sine_out[2] 0
4 sine_out[1] *578:A 0.000209669
5 sine_out[1] *208:26 0.000242355
6 sine_out[1] *212:10 0
7 sine_out[0] sine_out[1] 0
*RES
1 *561:X sine_out[1] 34.6492 
*END

*D_NET *19 0.00210478
*CONN
*P sine_out[20] O
*I *562:X O *D sg13g2_buf_2
*CAP
1 sine_out[20] 0.000988507
2 *562:X 0.000988507
3 sine_out[20] sine_out[21] 1.53099e-05
4 sine_out[20] *214:14 0.000112453
5 sine_out[19] sine_out[20] 0
*RES
1 *562:X sine_out[20] 31.003 
*END

*D_NET *20 0.00211265
*CONN
*P sine_out[21] O
*I *563:X O *D sg13g2_buf_2
*CAP
1 sine_out[21] 0.00104096
2 *563:X 0.00104096
3 sine_out[21] sine_out[22] 0
4 sine_out[21] *562:A 1.54282e-05
5 sine_out[20] sine_out[21] 1.53099e-05
*RES
1 *563:X sine_out[21] 31.3532 
*END

*D_NET *21 0.00204357
*CONN
*P sine_out[22] O
*I *564:X O *D sg13g2_buf_2
*CAP
1 sine_out[22] 0.00101413
2 *564:X 0.00101413
3 sine_out[22] sine_out[23] 1.53099e-05
4 sine_out[22] *562:A 0
5 sine_out[22] *22:10 0
6 sine_out[21] sine_out[22] 0
*RES
1 *564:X sine_out[22] 31.6004 
*END

*D_NET *22 0.00215164
*CONN
*P sine_out[23] O
*I *565:X O *D sg13g2_buf_2
*CAP
1 sine_out[23] 0.000444523
2 *565:X 0.000599795
3 *22:10 0.00104432
4 sine_out[23] sine_out[24] 0
5 sine_out[23] sine_out[25] 0
6 *22:10 sine_out[25] 4.76977e-05
7 sine_out[22] sine_out[23] 1.53099e-05
8 sine_out[22] *22:10 0
*RES
1 *565:X *22:10 46.9113 
2 *22:10 sine_out[23] 25.0805 
*END

*D_NET *23 0.00296909
*CONN
*P sine_out[24] O
*I *567:X O *D sg13g2_buf_2
*CAP
1 sine_out[24] 0.000602087
2 *567:X 0.000569836
3 *23:8 0.00117192
4 sine_out[24] sine_out[25] 0
5 sine_out[24] sine_out[26] 0.000395396
6 sine_out[24] sine_out[27] 0.000182109
7 *23:8 sine_out[29] 0
8 *23:8 *189:8 4.77425e-05
9 *23:8 *198:14 0
10 sine_out[23] sine_out[24] 0
*RES
1 *567:X *23:8 46.3757 
2 *23:8 sine_out[24] 27.5937 
*END

*D_NET *24 0.003404
*CONN
*P sine_out[25] O
*I *568:X O *D sg13g2_buf_2
*CAP
1 sine_out[25] 0.000470048
2 *568:X 0.000844488
3 *24:10 0.00131454
4 sine_out[25] sine_out[26] 0
5 *24:10 sine_out[29] 0.000727229
6 *24:10 *26:10 0
7 sine_out[23] sine_out[25] 0
8 sine_out[24] sine_out[25] 0
9 *22:10 sine_out[25] 4.76977e-05
*RES
1 *568:X *24:10 48.9198 
2 *24:10 sine_out[25] 22.065 
*END

*D_NET *25 0.00321794
*CONN
*P sine_out[26] O
*I *569:X O *D sg13g2_buf_2
*CAP
1 sine_out[26] 0.00076426
2 *569:X 0.000639287
3 *25:8 0.00140355
4 sine_out[26] sine_out[27] 0
5 sine_out[26] sine_out[28] 0
6 *25:8 *569:A 1.54556e-05
7 *25:8 *26:10 0
8 *25:8 *27:10 0
9 sine_out[24] sine_out[26] 0.000395396
10 sine_out[25] sine_out[26] 0
*RES
1 *569:X *25:8 46.1594 
2 *25:8 sine_out[26] 28.3044 
*END

*D_NET *26 0.00454814
*CONN
*P sine_out[27] O
*I *570:X O *D sg13g2_buf_2
*CAP
1 sine_out[27] 0.000521179
2 *570:X 0.00114467
3 *26:10 0.00166585
4 sine_out[27] sine_out[28] 0.000341619
5 *26:10 sine_out[29] 0
6 *26:10 *569:A 0.000500145
7 *26:10 *570:A 1.54008e-05
8 *26:10 *574:A 0
9 *26:10 *223:10 0.000177157
10 sine_out[24] sine_out[27] 0.000182109
11 sine_out[26] sine_out[27] 0
12 *24:10 *26:10 0
13 *25:8 *26:10 0
*RES
1 *570:X *26:10 30.9386 
2 *26:10 sine_out[27] 46.1414 
*END

*D_NET *27 0.00482191
*CONN
*P sine_out[28] O
*I *571:X O *D sg13g2_buf_2
*CAP
1 sine_out[28] 0.000531332
2 *571:X 0.00106191
3 *27:10 0.00159324
4 sine_out[28] sine_out[29] 0
5 *27:10 sine_out[30] 0
6 *27:10 sine_out[31] 0.00129381
7 *27:10 *569:A 0
8 *27:10 *571:A 0
9 *27:10 *574:A 0
10 sine_out[26] sine_out[28] 0
11 sine_out[27] sine_out[28] 0.000341619
12 *25:8 *27:10 0
*RES
1 *571:X *27:10 31.1549 
2 *27:10 sine_out[28] 46.1723 
*END

*D_NET *28 0.00543987
*CONN
*P sine_out[29] O
*I *572:X O *D sg13g2_buf_2
*CAP
1 sine_out[29] 0.00152241
2 *572:X 0.000283126
3 *28:8 0.00180554
4 sine_out[29] sine_out[30] 0
5 sine_out[29] *371:A 0
6 sine_out[29] *386:B1 8.00394e-05
7 sine_out[29] *570:A 0.000403992
8 sine_out[29] *574:A 0
9 sine_out[29] *173:8 0
10 sine_out[29] *194:18 0
11 sine_out[29] *198:14 0.000112343
12 sine_out[29] *225:100 0.000209641
13 *28:8 *386:A1 0
14 *28:8 *197:14 0
15 *28:8 *234:14 0
16 *28:8 *234:20 0.000295546
17 sine_out[28] sine_out[29] 0
18 *23:8 sine_out[29] 0
19 *24:10 sine_out[29] 0.000727229
20 *26:10 sine_out[29] 0
*RES
1 *572:X *28:8 43.0694 
2 *28:8 sine_out[29] 33.7234 
*END

*D_NET *29 0.00312528
*CONN
*P sine_out[2] O
*I *573:X O *D sg13g2_buf_2
*CAP
1 sine_out[2] 0.00118294
2 *573:X 0.00118294
3 sine_out[2] sine_out[3] 0.000469553
4 sine_out[2] *577:A 0
5 sine_out[2] *578:A 8.02269e-05
6 sine_out[2] *212:10 0.000209614
7 sine_out[1] sine_out[2] 0
*RES
1 *573:X sine_out[2] 29.5272 
*END

*D_NET *30 0.00445904
*CONN
*P sine_out[30] O
*I *574:X O *D sg13g2_buf_2
*CAP
1 sine_out[30] 0.000348834
2 *574:X 0.00010477
3 *30:12 0.00165418
4 *30:8 0.00141012
5 sine_out[30] sine_out[31] 0
6 *30:8 *542:A 7.33256e-05
7 *30:12 *72:12 0.00086781
8 sine_out[29] sine_out[30] 0
9 *27:10 sine_out[30] 0
*RES
1 *574:X *30:8 41.0918 
2 *30:8 *30:12 35.8929 
3 *30:12 sine_out[30] 43.7827 
*END

*D_NET *31 0.00637323
*CONN
*P sine_out[31] O
*I *575:X O *D sg13g2_buf_2
*CAP
1 sine_out[31] 0.00168602
2 *575:X 0.000264494
3 *31:8 0.00195052
4 sine_out[31] sine_out[32] 0
5 sine_out[31] *540:A 0
6 sine_out[31] *571:A 0
7 *31:8 *201:18 0
8 *31:8 *231:39 0.000815578
9 *31:8 *231:43 7.51285e-05
10 *31:8 *233:10 0.000287672
11 sine_out[30] sine_out[31] 0
12 *27:10 sine_out[31] 0.00129381
*RES
1 *575:X *31:8 44.0582 
2 *31:8 sine_out[31] 35.5212 
*END

*D_NET *32 0.00561156
*CONN
*P sine_out[32] O
*I *576:X O *D sg13g2_buf_2
*CAP
1 sine_out[32] 0.00185789
2 *576:X 9.08328e-05
3 *32:8 0.00194872
4 sine_out[32] *378:A1 0
5 sine_out[32] *407:A1 0
6 sine_out[32] *76:16 0
7 sine_out[32] *78:8 0
8 sine_out[32] *198:14 0.00156931
9 sine_out[32] *204:8 0
10 *32:8 *407:A1 0
11 *32:8 *562:A 0
12 *32:8 *214:14 0.000144814
13 sine_out[31] sine_out[32] 0
*RES
1 *576:X *32:8 40.9682 
2 *32:8 sine_out[32] 41.6532 
*END

*D_NET *33 0.00238317
*CONN
*P sine_out[3] O
*I *578:X O *D sg13g2_buf_2
*CAP
1 sine_out[3] 0.000949081
2 *578:X 0.000949081
3 sine_out[3] sine_out[4] 1.54556e-05
4 sine_out[3] *212:10 0
5 sine_out[2] sine_out[3] 0.000469553
*RES
1 *578:X sine_out[3] 31.003 
*END

*D_NET *34 0.00196084
*CONN
*P sine_out[4] O
*I *579:X O *D sg13g2_buf_2
*CAP
1 sine_out[4] 0.000972691
2 *579:X 0.000972691
3 sine_out[4] sine_out[5] 0
4 sine_out[3] sine_out[4] 1.54556e-05
*RES
1 *579:X sine_out[4] 31.003 
*END

*D_NET *35 0.00191772
*CONN
*P sine_out[5] O
*I *580:X O *D sg13g2_buf_2
*CAP
1 sine_out[5] 0.00095116
2 *580:X 0.00095116
3 sine_out[5] sine_out[6] 0
4 sine_out[5] *580:A 1.54008e-05
5 sine_out[5] *37:10 0
6 sine_out[5] *238:12 0
7 sine_out[4] sine_out[5] 0
*RES
1 *580:X sine_out[5] 30.8588 
*END

*D_NET *36 0.00259643
*CONN
*P sine_out[6] O
*I *581:X O *D sg13g2_buf_2
*CAP
1 sine_out[6] 0.00129052
2 *581:X 0.00129052
3 sine_out[6] sine_out[7] 0
4 sine_out[6] sine_out[8] 0
5 sine_out[6] *499:B 0
6 sine_out[6] *581:A 1.54008e-05
7 sine_out[6] *37:10 0
8 sine_out[6] *38:10 0
9 sine_out[6] *238:12 0
10 sine_out[6] *247:16 0
11 sine_out[5] sine_out[6] 0
*RES
1 *581:X sine_out[6] 28.4958 
*END

*D_NET *37 0.00220734
*CONN
*P sine_out[7] O
*I *582:X O *D sg13g2_buf_2
*CAP
1 sine_out[7] 0.000576702
2 *582:X 0.000503096
3 *37:10 0.0010798
4 sine_out[7] sine_out[8] 0
5 *37:10 *238:12 4.77425e-05
6 sine_out[5] *37:10 0
7 sine_out[6] sine_out[7] 0
8 sine_out[6] *37:10 0
*RES
1 *582:X *37:10 44.8719 
2 *37:10 sine_out[7] 21.3865 
*END

*D_NET *38 0.00230921
*CONN
*P sine_out[8] O
*I *583:X O *D sg13g2_buf_2
*CAP
1 sine_out[8] 0.000640954
2 *583:X 0.000473597
3 *38:10 0.00111455
4 sine_out[8] sine_out[9] 0
5 *38:10 sine_out[9] 0
6 *38:10 *247:16 8.01118e-05
7 sine_out[6] sine_out[8] 0
8 sine_out[6] *38:10 0
9 sine_out[7] sine_out[8] 0
*RES
1 *583:X *38:10 44.4393 
2 *38:10 sine_out[8] 26.8109 
*END

*D_NET *39 0.00215584
*CONN
*P sine_out[9] O
*I *584:X O *D sg13g2_buf_2
*CAP
1 sine_out[9] 0.00102182
2 *584:X 0.00102182
3 sine_out[9] *214:20 0.0001122
4 sine_out[10] sine_out[9] 0
5 sine_out[8] sine_out[9] 0
6 *38:10 sine_out[9] 0
*RES
1 *584:X sine_out[9] 31.106 
*END

*D_NET *40 0.00132957
*CONN
*I *522:D I *D sg13g2_dfrbpq_1
*I *440:Y O *D sg13g2_inv_1
*CAP
1 *522:D 0
2 *440:Y 0.000315871
3 *40:10 0.000315871
4 *40:10 *440:A 0.000143852
5 *40:10 *522:CLK 0
6 *40:10 *524:A 0.000553975
7 *40:10 *245:8 0
*RES
1 *440:Y *40:10 43.9758 
2 *40:10 *522:D 40 
*END

*D_NET *41 0.00173128
*CONN
*I *521:D I *D sg13g2_dfrbpq_1
*I *435:Y O *D sg13g2_xnor2_1
*CAP
1 *521:D 0
2 *435:Y 0.000697151
3 *41:14 0.000697151
4 *41:14 *435:A 0
5 *41:14 *435:B 0
6 *41:14 *439:B1 0
7 *41:14 *471:A 0
8 *41:14 *183:51 0.000336979
9 *41:14 *203:37 0
10 *41:14 *245:67 0
*RES
1 *435:Y *41:14 46.6288 
2 *41:14 *521:D 40 
*END

*D_NET *42 0.000445555
*CONN
*I *529:A I *D sg13g2_buf_8
*I *530:A I *D sg13g2_buf_2
*I *522:Q O *D sg13g2_dfrbpq_1
*CAP
1 *529:A 2.91419e-05
2 *530:A 4.97127e-05
3 *522:Q 0.000143923
4 *42:6 0.000222777
5 *42:6 *182:10 0
6 *42:6 *222:10 0
*RES
1 *522:Q *42:6 21.4008 
2 *42:6 *530:A 20.5974 
3 *42:6 *529:A 20.3502 
*END

*D_NET *43 0.00249622
*CONN
*I *554:A I *D sg13g2_dlygate4sd3_1
*I *552:A I *D sg13g2_buf_2
*I *514:Q O *D sg13g2_dfrbpq_1
*CAP
1 *554:A 0
2 *552:A 0
3 *514:Q 0.000408821
4 *43:14 0.000312865
5 *43:8 0.000721686
6 *43:8 *463:C 0.000533221
7 *43:8 *240:56 0
8 *43:8 *240:62 0
9 *43:8 *245:12 0
10 *43:14 *176:26 0
11 *43:14 *179:16 0
12 *43:14 *179:29 0
13 *43:14 *237:12 0.000287204
14 *43:14 *237:24 0.000232421
*RES
1 *514:Q *43:8 24.4084 
2 *43:8 *43:14 43.0694 
3 *43:14 *552:A 20 
4 *43:8 *554:A 20 
*END

*D_NET *44 0.000419997
*CONN
*I *550:A I *D sg13g2_buf_8
*I *515:Q O *D sg13g2_dfrbpq_1
*CAP
1 *550:A 0.000209998
2 *515:Q 0.000209998
3 *550:A *516:D 0
*RES
1 *515:Q *550:A 42.4617 
*END

*D_NET *45 0.000217758
*CONN
*I *515:D I *D sg13g2_dfrbpq_1
*I *413:Y O *D sg13g2_xnor2_1
*CAP
1 *515:D 0.000108879
2 *413:Y 0.000108879
3 *515:D *506:A 0
*RES
1 *413:Y *515:D 41.1845 
*END

*D_NET *46 0.000511534
*CONN
*I *546:A I *D sg13g2_buf_8
*I *547:A I *D sg13g2_buf_8
*I *516:Q O *D sg13g2_dfrbpq_2
*CAP
1 *546:A 0.000188898
2 *547:A 0
3 *516:Q 6.68694e-05
4 *46:6 0.000255767
5 *546:A *517:D 0
6 *546:A *184:20 0
*RES
1 *516:Q *46:6 20.8446 
2 *46:6 *547:A 20 
3 *46:6 *546:A 21.8334 
*END

*D_NET *47 0.000440832
*CONN
*I *516:D I *D sg13g2_dfrbpq_2
*I *417:X O *D sg13g2_xor2_1
*CAP
1 *516:D 0.000220416
2 *417:X 0.000220416
3 *516:D *516:RESET_B 0
4 *550:A *516:D 0
*RES
1 *417:X *516:D 42.4926 
*END

*D_NET *48 0.000500549
*CONN
*I *545:A I *D sg13g2_buf_8
*I *517:Q O *D sg13g2_dfrbpq_1
*CAP
1 *545:A 0.000250275
2 *517:Q 0.000250275
3 *545:A *511:A 0
4 *545:A *239:14 0
*RES
1 *517:Q *545:A 42.9561 
*END

*D_NET *49 0.00176923
*CONN
*I *517:D I *D sg13g2_dfrbpq_1
*I *421:X O *D sg13g2_xor2_1
*CAP
1 *517:D 0.000352136
2 *421:X 8.39695e-05
3 *49:8 0.000436106
4 *517:D *508:A 0
5 *49:8 *86:20 0.00044933
6 *49:8 *215:16 0.000159511
7 *49:8 *215:22 0.000288173
8 *546:A *517:D 0
*RES
1 *421:X *49:8 42.0806 
2 *49:8 *517:D 43.5638 
*END

*D_NET *50 0.00521505
*CONN
*I *540:A I *D sg13g2_buf_8
*I *543:A I *D sg13g2_buf_8
*I *541:A I *D sg13g2_buf_8
*I *518:Q O *D sg13g2_dfrbpq_2
*CAP
1 *540:A 0.000642982
2 *543:A 0
3 *541:A 0
4 *518:Q 0.000815502
5 *50:17 0.000824438
6 *50:10 0.000996958
7 *540:A *571:A 1.54008e-05
8 *540:A *574:A 0.000533681
9 *540:A *201:18 0
10 *540:A *231:37 0
11 *50:10 *356:A 0.000176815
12 *50:10 *52:12 0
13 *50:10 *54:10 0.000242213
14 *50:10 *229:6 0.000404354
15 *50:10 *231:18 0.000305236
16 *50:10 *231:37 1.54008e-05
17 *50:17 *54:10 1.54008e-05
18 *50:17 *201:18 0
19 *50:17 *229:6 0.00022667
20 *50:17 *231:37 0
21 sine_out[31] *540:A 0
*RES
1 *518:Q *50:10 28.343 
2 *50:10 *541:A 20 
3 *50:10 *50:17 1.8334 
4 *50:17 *543:A 20 
5 *50:17 *540:A 26.1594 
*END

*D_NET *51 0.000248561
*CONN
*I *518:D I *D sg13g2_dfrbpq_2
*I *425:X O *D sg13g2_xor2_1
*CAP
1 *518:D 0.000100527
2 *425:X 0.000100527
3 *518:D *90:12 0
4 *518:D *94:16 4.75063e-05
*RES
1 *425:X *518:D 41.1639 
*END

*D_NET *52 0.00223575
*CONN
*I *539:A I *D sg13g2_buf_1
*I *536:A I *D sg13g2_buf_1
*I *519:Q O *D sg13g2_dfrbpq_1
*CAP
1 *539:A 0
2 *536:A 3.56061e-05
3 *519:Q 0.000588721
4 *52:27 0.000317188
5 *52:12 0.000941514
6 *52:12 *356:A 0.000176815
7 *52:12 *229:6 0
8 *52:27 *62:8 0.00012816
9 *52:27 *224:12 4.77425e-05
10 *3:13 *52:27 0
11 *50:10 *52:12 0
*RES
1 *519:Q *52:12 26.1285 
2 *52:12 *536:A 20.3193 
3 *52:12 *52:27 43.1415 
4 *52:27 *539:A 20 
*END

*D_NET *53 0.000549005
*CONN
*I *519:D I *D sg13g2_dfrbpq_1
*I *429:X O *D sg13g2_xor2_1
*CAP
1 *519:D 0.000218552
2 *429:X 0.000218552
3 *519:D *63:12 0
4 *519:D *232:46 0.000111901
*RES
1 *429:X *519:D 42.2763 
*END

*D_NET *54 0.00220335
*CONN
*I *534:A I *D sg13g2_buf_8
*I *533:A I *D sg13g2_buf_8
*I *520:Q O *D sg13g2_dfrbpq_2
*CAP
1 *534:A 0.000174821
2 *533:A 0
3 *520:Q 0.000449101
4 *54:12 0.000174821
5 *54:10 0.000449101
6 *534:A *537:A 0.000273652
7 *534:A *234:14 0
8 *54:10 *201:10 0
9 *54:10 *224:16 0.000182023
10 *54:10 *229:12 0
11 *54:10 *231:37 0.000242213
12 *50:10 *54:10 0.000242213
13 *50:17 *54:10 1.54008e-05
*RES
1 *520:Q *54:10 44.9337 
2 *54:10 *54:12 20 
3 *54:12 *533:A 20 
4 *54:12 *534:A 21.8334 
*END

*D_NET *55 0.0010743
*CONN
*I *520:D I *D sg13g2_dfrbpq_2
*I *432:Y O *D sg13g2_xnor2_1
*CAP
1 *520:D 0.000108438
2 *432:Y 0.000404865
3 *55:12 0.000513303
4 *520:D *429:B 0
5 *520:D *63:12 0
6 *55:12 *429:B 0
7 *55:12 *432:A 0
8 *55:12 *519:RESET_B 0
9 *55:12 *94:16 0
10 *55:12 *231:8 0
11 *55:12 *232:31 4.76973e-05
*RES
1 *432:Y *55:12 43.8625 
2 *55:12 *520:D 40.9682 
*END

*D_NET *56 0.00925475
*CONN
*I *355:A I *D sg13g2_nor2_1
*I *384:A1 I *D sg13g2_o21ai_1
*I *359:A I *D sg13g2_nor2_1
*I *514:D I *D sg13g2_dfrbpq_1
*I *414:A1 I *D sg13g2_o21ai_1
*I *349:Y O *D sg13g2_inv_2
*CAP
1 *355:A 5.16493e-05
2 *384:A1 8.18523e-05
3 *359:A 0.000632574
4 *514:D 0
5 *414:A1 0
6 *349:Y 4.06381e-05
7 *56:42 0.000833952
8 *56:38 0.0012459
9 *56:34 0.00143856
10 *56:23 0.00068216
11 *56:14 0.000105164
12 *56:6 0.000567421
13 *355:A *355:B 4.77425e-05
14 *355:A *437:B 7.33256e-05
15 *355:A *133:8 0.000106064
16 *355:A *244:23 5.30319e-05
17 *355:A *244:42 4.77425e-05
18 *359:A *373:A 0
19 *359:A *384:B1 0
20 *359:A *392:A 0
21 *359:A *392:B 0
22 *359:A *470:B 0
23 *359:A *155:8 0.000231555
24 *359:A *159:60 7.45103e-05
25 *359:A *164:12 0
26 *359:A *165:10 4.75425e-05
27 *359:A *241:35 0
28 *359:A *248:18 0
29 *384:A1 *159:60 0.000144102
30 *384:A1 *166:56 0.000144102
31 *56:6 *349:A 0
32 *56:14 *414:A2 7.31538e-06
33 *56:14 *81:10 0
34 *56:14 *183:14 7.19987e-05
35 *56:14 *244:42 0.000126663
36 *56:23 *439:A2 0
37 *56:23 *134:18 0
38 *56:23 *183:8 6.35071e-05
39 *56:23 *183:14 0.000207897
40 *56:23 *221:57 0
41 *56:23 *244:46 0
42 *56:34 *437:B 7.33225e-05
43 *56:34 *473:A 0
44 *56:34 *473:B 0.000126358
45 *56:34 *521:RESET_B 0
46 *56:34 *133:8 0.00012816
47 *56:34 *242:43 0.000126358
48 *56:34 *244:42 0
49 *56:38 *135:16 0.000294471
50 *56:38 *135:26 0.000339922
51 *56:38 *225:37 0
52 *56:38 *228:117 0
53 *56:38 *233:113 0.000762626
54 *56:38 *237:105 0
55 *56:38 *242:43 0.000144743
56 *56:38 *242:54 0.00011034
57 *56:42 *159:60 2.14736e-05
58 *56:42 *165:10 0
*RES
1 *349:Y *56:6 20.3502 
2 *56:6 *56:14 41.0789 
3 *56:14 *414:A1 20 
4 *56:6 *56:23 4.1303 
5 *56:23 *514:D 20 
6 *56:23 *56:34 22.9252 
7 *56:34 *56:38 30.7017 
8 *56:38 *56:42 20.8446 
9 *56:42 *359:A 45.871 
10 *56:42 *384:A1 40.9682 
11 *56:34 *355:A 40.9167 
*END

*D_NET *57 0.00267062
*CONN
*I *514:RESET_B I *D sg13g2_dfrbpq_1
*I *350:Y O *D sg13g2_inv_1
*CAP
1 *514:RESET_B 0.000219782
2 *350:Y 0.000299336
3 *57:12 0.000519118
4 *514:RESET_B *183:8 0
5 *514:RESET_B *183:64 0.000272602
6 *514:RESET_B *244:42 0.00036983
7 *57:12 *101:8 0.000444315
8 *57:12 *183:51 0.00049809
9 *57:12 *221:57 4.75442e-05
10 *57:12 *245:67 0
*RES
1 *350:Y *57:12 44.1097 
2 *57:12 *514:RESET_B 42.4823 
*END

*D_NET *58 0.000472342
*CONN
*I *515:RESET_B I *D sg13g2_dfrbpq_1
*I *506:Y O *D sg13g2_inv_1
*CAP
1 *515:RESET_B 0.000236171
2 *506:Y 0.000236171
3 *515:RESET_B *506:A 0
*RES
1 *506:Y *515:RESET_B 42.7089 
*END

*D_NET *59 0.00129423
*CONN
*I *516:RESET_B I *D sg13g2_dfrbpq_2
*I *507:Y O *D sg13g2_inv_1
*CAP
1 *516:RESET_B 0.000327823
2 *507:Y 6.86935e-05
3 *59:8 0.000396517
4 *516:RESET_B *417:A 0
5 *516:RESET_B *522:CLK 0.000501197
6 *516:RESET_B *85:8 0
7 *516:RESET_B *85:16 0
8 *516:D *516:RESET_B 0
*RES
1 *507:Y *59:8 40.5974 
2 *59:8 *516:RESET_B 43.6977 
*END

*D_NET *60 0.000260807
*CONN
*I *517:RESET_B I *D sg13g2_dfrbpq_1
*I *508:Y O *D sg13g2_inv_1
*CAP
1 *517:RESET_B 0
2 *508:Y 0.000130403
3 *60:8 0.000130403
*RES
1 *508:Y *60:8 41.5862 
2 *60:8 *517:RESET_B 40 
*END

*D_NET *61 0.000748887
*CONN
*I *518:RESET_B I *D sg13g2_dfrbpq_2
*I *509:Y O *D sg13g2_inv_1
*CAP
1 *518:RESET_B 0
2 *509:Y 0.000242618
3 *61:10 0.000242618
4 *61:10 *63:12 0.000241574
5 *61:10 *222:43 2.20764e-05
6 *61:10 *232:12 0
7 *61:10 *232:19 0
*RES
1 *509:Y *61:10 42.7089 
2 *61:10 *518:RESET_B 40 
*END

*D_NET *62 0.003222
*CONN
*I *519:RESET_B I *D sg13g2_dfrbpq_1
*I *510:Y O *D sg13g2_inv_1
*CAP
1 *519:RESET_B 0.000683472
2 *510:Y 0.000167542
3 *62:8 0.000851014
4 *519:RESET_B *525:A 4.77699e-05
5 *519:RESET_B *63:12 0
6 *519:RESET_B *91:14 4.77425e-05
7 *519:RESET_B *94:16 0
8 *519:RESET_B *184:10 0
9 *519:RESET_B *222:43 0.000241092
10 *519:RESET_B *232:31 0
11 *519:RESET_B *232:46 0
12 *62:8 *232:12 0.000342035
13 *3:13 *62:8 0.000713172
14 *52:27 *62:8 0.00012816