*SPEF "ieee 1481-1999"
*DESIGN "DigitalSine"
*DATE "17:30:16 Thursday February 05, 2026"
*VENDOR "The OpenROAD Project"
*PROGRAM "OpenROAD"
*VERSION "341650e72dad0dc8571822ff8c5d9c5e365327f7"
*DESIGN_FLOW "NAME_SCOPE LOCAL" "PIN_CAP NONE"
*DIVIDER /
*DELIMITER :
*BUS_DELIMITER []
*T_UNIT 1 NS
*C_UNIT 1 PF
*R_UNIT 1 OHM
*L_UNIT 1 HENRY

*NAME_MAP
*3 clk
*4 rst
*5 sign
*6 signB
*7 sine_out[0]
*8 sine_out[10]
*9 sine_out[11]
*10 sine_out[12]
*11 sine_out[13]
*12 sine_out[14]
*13 sine_out[15]
*14 sine_out[16]
*15 sine_out[17]
*16 sine_out[18]
*17 sine_out[19]
*18 sine_out[1]
*19 sine_out[20]
*20 sine_out[21]
*21 sine_out[22]
*22 sine_out[23]
*23 sine_out[24]
*24 sine_out[25]
*25 sine_out[26]
*26 sine_out[27]
*27 sine_out[28]
*28 sine_out[29]
*29 sine_out[2]
*30 sine_out[30]
*31 sine_out[31]
*32 sine_out[32]
*33 sine_out[3]
*34 sine_out[4]
*35 sine_out[5]
*36 sine_out[6]
*37 sine_out[7]
*38 sine_out[8]
*39 sine_out[9]
*40 CTRL\.P0
*41 CTRL\.P1
*42 CTRL\.S0
*43 DPATH\.SUM\.Cout0
*44 DPATH\.SUM\.fa_1\.A
*45 DPATH\.SUM\.fa_1\.S
*46 DPATH\.SUM\.fa_2\.A
*47 DPATH\.SUM\.fa_2\.S
*48 DPATH\.SUM\.fa_3\.A
*49 DPATH\.SUM\.fa_3\.S
*50 DPATH\.SUM\.fa_4\.A
*51 DPATH\.SUM\.fa_4\.S
*52 DPATH\.SUM\.fa_5\.A
*53 DPATH\.SUM\.fa_5\.S
*54 DPATH\.SUM\.fa_6\.A
*55 DPATH\.SUM\.fa_6\.S
*56 DPATH\.SUM\.ha_0\.S
*57 _000_
*58 _001_
*59 _002_
*60 _003_
*61 _004_
*62 _005_
*63 _006_
*64 _007_
*65 _008_
*66 _009_
*67 _010_
*68 _011_
*69 _012_
*70 _013_
*71 _014_
*72 _015_
*73 _016_
*74 _017_
*75 _018_
*76 _019_
*77 _020_
*78 _021_
*79 _022_
*80 _023_
*81 _024_
*82 _025_
*83 _026_
*84 _027_
*85 _028_
*86 _029_
*87 _030_
*88 _031_
*89 _032_
*90 _033_
*91 _034_
*92 _035_
*93 _036_
*94 _037_
*95 _038_
*96 _039_
*97 _040_
*98 _041_
*99 _042_
*100 _043_
*101 _044_
*102 _045_
*103 _046_
*104 _047_
*105 _048_
*106 _049_
*107 _050_
*108 _051_
*109 _052_
*110 _053_
*111 _054_
*112 _055_
*113 _056_
*114 _057_
*115 _058_
*116 _059_
*117 _060_
*118 _061_
*119 _062_
*120 _063_
*121 _064_
*122 _065_
*123 _066_
*124 _067_
*125 _068_
*126 _069_
*127 _070_
*128 _071_
*129 _072_
*130 _073_
*131 _074_
*132 _075_
*133 _076_
*134 _077_
*135 _078_
*136 _079_
*137 _080_
*138 _081_
*139 _082_
*140 _083_
*141 _084_
*142 _085_
*143 _086_
*144 _087_
*145 _088_
*146 _089_
*147 _090_
*148 _091_
*149 _092_
*150 _093_
*151 _094_
*152 _095_
*153 _096_
*154 _097_
*155 _098_
*156 _099_
*157 _100_
*158 _101_
*159 _102_
*160 _103_
*161 _104_
*162 _105_
*163 _106_
*164 _107_
*165 _108_
*166 _109_
*167 _110_
*168 _111_
*169 _112_
*170 _113_
*171 _114_
*172 _115_
*173 _116_
*174 _117_
*175 _118_
*176 _119_
*177 _120_
*178 _121_
*179 _122_
*180 _123_
*181 _124_
*182 clknet_0_clk
*183 clknet_1_0__leaf_clk
*184 clknet_1_1__leaf_clk
*185 net1
*186 net10
*187 net11
*188 net12
*189 net13
*190 net14
*191 net15
*192 net16
*193 net17
*194 net18
*195 net19
*196 net2
*197 net20
*198 net21
*199 net22
*200 net23
*201 net24
*202 net25
*203 net26
*204 net27
*205 net28
*206 net29
*207 net3
*208 net30
*209 net31
*210 net32
*211 net33
*212 net34
*213 net35
*214 net36
*215 net37
*216 net38
*217 net39
*218 net4
*219 net5
*220 net53
*221 net54
*222 net55
*223 net56
*224 net57
*225 net58
*226 net59
*227 net6
*228 net60
*229 net61
*230 net62
*231 net63
*232 net64
*233 net65
*234 net66
*235 net67
*236 net68
*237 net69
*238 net7
*239 net70
*240 net71
*241 net72
*242 net73
*243 net74
*244 net75
*245 net76
*246 net8
*247 net9
*248 FILLER_0_0
*249 FILLER_0_106
*250 FILLER_0_113
*251 FILLER_0_120
*252 FILLER_0_127
*253 FILLER_0_14
*254 FILLER_0_21
*255 FILLER_0_25
*256 FILLER_0_53
*257 FILLER_0_60
*258 FILLER_0_7
*259 FILLER_0_74
*260 FILLER_0_76
*261 FILLER_0_80
*262 FILLER_0_90
*263 FILLER_0_92
*264 FILLER_10_123
*265 FILLER_10_30
*266 FILLER_10_32
*267 FILLER_10_84
*268 FILLER_10_91
*269 FILLER_10_93
*270 FILLER_11_104
*271 FILLER_11_128
*272 FILLER_11_44
*273 FILLER_11_50
*274 FILLER_11_70
*275 FILLER_11_77
*276 FILLER_11_81
*277 FILLER_11_93
*278 FILLER_12_0
*279 FILLER_12_127
*280 FILLER_12_13
*281 FILLER_12_2
*282 FILLER_12_24
*283 FILLER_12_26
*284 FILLER_12_32
*285 FILLER_12_42
*286 FILLER_12_56
*287 FILLER_12_67
*288 FILLER_12_69
*289 FILLER_12_75
*290 FILLER_12_90
*291 FILLER_12_96
*292 FILLER_13_28
*293 FILLER_13_33
*294 FILLER_13_60
*295 FILLER_13_62
*296 FILLER_13_74
*297 FILLER_13_83
*298 FILLER_13_93
*299 FILLER_13_95
*300 FILLER_14_0
*301 FILLER_14_126
*302 FILLER_14_128
*303 FILLER_14_28
*304 FILLER_14_30
*305 FILLER_14_36
*306 FILLER_14_38
*307 FILLER_14_67
*308 FILLER_14_91
*309 FILLER_15_0
*310 FILLER_15_125
*311 FILLER_15_57
*312 FILLER_15_59
*313 FILLER_1_0
*314 FILLER_1_101
*315 FILLER_1_108
*316 FILLER_1_115
*317 FILLER_1_122
*318 FILLER_1_14
*319 FILLER_1_21
*320 FILLER_1_28
*321 FILLER_1_62
*322 FILLER_1_7
*323 FILLER_2_106
*324 FILLER_2_113
*325 FILLER_2_12
*326 FILLER_2_120
*327 FILLER_2_124
*328 FILLER_2_19
*329 FILLER_2_23
*330 FILLER_2_36
*331 FILLER_2_40
*332 FILLER_2_5
*333 FILLER_2_50
*334 FILLER_2_57
*335 FILLER_2_90
*336 FILLER_2_99
*337 FILLER_3_0
*338 FILLER_3_126
*339 FILLER_3_128
*340 FILLER_3_14
*341 FILLER_3_21
*342 FILLER_3_28
*343 FILLER_3_33
*344 FILLER_3_40
*345 FILLER_3_47
*346 FILLER_3_51
*347 FILLER_3_66
*348 FILLER_3_68
*349 FILLER_3_7
*350 FILLER_3_98
*351 FILLER_4_0
*352 FILLER_4_128
*353 FILLER_4_14
*354 FILLER_4_21
*355 FILLER_4_25
*356 FILLER_4_31
*357 FILLER_4_36
*358 FILLER_4_38
*359 FILLER_4_69
*360 FILLER_4_7
*361 FILLER_5_0
*362 FILLER_5_117
*363 FILLER_5_124
*364 FILLER_5_128
*365 FILLER_5_14
*366 FILLER_5_7
*367 FILLER_5_85
*368 FILLER_5_87
*369 FILLER_6_0
*370 FILLER_6_100
*371 FILLER_6_11
*372 FILLER_6_128
*373 FILLER_6_16
*374 FILLER_6_18
*375 FILLER_6_24
*376 FILLER_6_30
*377 FILLER_6_37
*378 FILLER_6_44
*379 FILLER_6_7
*380 FILLER_6_82
*381 FILLER_6_86
*382 FILLER_7_0
*383 FILLER_7_2
*384 FILLER_7_25
*385 FILLER_7_39
*386 FILLER_7_41
*387 FILLER_7_63
*388 FILLER_7_70
*389 FILLER_7_87
*390 FILLER_8_110
*391 FILLER_8_21
*392 FILLER_8_23
*393 FILLER_8_43
*394 FILLER_8_45
*395 FILLER_8_53
*396 FILLER_8_55
*397 FILLER_9_49
*398 FILLER_9_61
*399 FILLER_9_77
*400 FILLER_9_84
*401 FILLER_9_88
*402 _125_
*403 _126_
*404 _127_
*405 _128_
*406 _129_
*407 _130_
*408 _131_
*409 _132_
*410 _133_
*411 _134_
*412 _135_
*413 _136_
*414 _137_
*415 _138_
*416 _139_
*417 _140_
*418 _141_
*419 _142_
*420 _143_
*421 _144_
*422 _145_
*423 _146_
*424 _147_
*425 _148_
*426 _149_
*427 _150_
*428 _151_
*429 _152_
*430 _153_
*431 _154_
*432 _155_
*433 _156_
*434 _157_
*435 _158_
*436 _159_
*437 _160_
*438 _161_
*439 _162_
*440 _163_
*441 _164_
*442 _165_
*443 _166_
*444 _167_
*445 _168_
*446 _169_
*447 _170_
*448 _171_
*449 _172_
*450 _173_
*451 _174_
*452 _175_
*453 _176_
*454 _177_
*455 _178_
*456 _179_
*457 _180_
*458 _181_
*459 _182_
*460 _183_
*461 _184_
*462 _185_
*463 _186_
*464 _187_
*465 _188_
*466 _189_
*467 _190_
*468 _191_
*469 _192_
*470 _193_
*471 _194_
*472 _195_
*473 _196_
*474 _197_
*475 _198_
*476 _199_
*477 _200_
*478 _201_
*479 _202_
*480 _203_
*481 _204_
*482 _205_
*483 _206_
*484 _207_
*485 _208_
*486 _209_
*487 _210_
*488 _211_
*489 _212_
*490 _213_
*491 _214_
*492 _215_
*493 _216_
*494 _217_
*495 _218_
*496 _219_
*497 _220_
*498 _221_
*499 _222_
*500 _223_
*501 _224_
*502 _225_
*503 _226_
*504 _227_
*505 _228_
*506 _229_
*507 _230_
*508 _231_
*509 _232_
*510 _233_
*511 _234_
*512 _235_
*513 _236_
*514 _237_
*515 _238_
*516 _239_
*517 _240_
*518 _241_
*519 _242_
*520 _243_
*521 _244_
*522 _245_
*523 _246_
*524 _247_
*525 _248_
*526 _249_
*527 _250_
*528 _251_
*529 _252_
*530 _253_
*531 _254_
*532 _255_
*533 _256_
*534 _257_
*535 _258_
*536 _259_
*537 _260_
*538 _261_
*539 _262_
*540 _263_
*541 _264_
*542 _265_
*543 _266_
*544 _267_
*545 _268_
*546 _269_
*547 _270_
*548 _271_
*549 _272_
*550 _273_
*551 _274_
*552 _275_
*553 _276_
*554 _277_
*555 _278_
*556 _279_
*557 _280_
*558 _281_
*559 _282_
*560 _283_
*561 _284_
*562 _285_
*563 _286_
*564 _287_
*565 _288_
*566 _289_
*567 _290_
*568 _291_
*569 _292_
*570 _293_
*571 _294_
*572 _295_
*573 _296_
*574 _297_
*575 _298_
*576 _299_
*577 _300_
*578 _301_
*579 clkbuf_0_clk
*580 clkbuf_1_0__f_clk
*581 clkbuf_1_1__f_clk
*582 clkload0
*583 fanout37
*584 fanout53
*585 fanout54
*586 fanout55
*587 fanout56
*588 fanout57
*589 fanout58
*590 fanout59
*591 fanout60
*592 fanout61
*593 fanout62
*594 fanout63
*595 fanout64
*596 fanout65
*597 fanout66
*598 fanout67
*599 fanout68
*600 fanout69
*601 fanout70
*602 fanout71
*603 fanout72
*604 fanout73
*605 fanout74
*606 fanout75
*607 fanout76
*608 hold1
*609 hold2
*610 input1
*611 output10
*612 output11
*613 output12
*614 output13
*615 output14
*616 output15
*617 output16
*618 output17
*619 output18
*620 output19
*621 output2
*622 output20
*623 output21
*624 output22
*625 output23
*626 output24
*627 output25
*628 output26
*629 output27
*630 output28
*631 output29
*632 output3
*633 output30
*634 output31
*635 output32
*636 output33
*637 output34
*638 output35
*639 output36
*640 output4
*641 output5
*642 output6
*643 output7
*644 output8
*645 output9

*PORTS
clk I
rst I
sign O
signB O
sine_out[0] O
sine_out[10] O
sine_out[11] O
sine_out[12] O
sine_out[13] O
sine_out[14] O
sine_out[15] O
sine_out[16] O
sine_out[17] O
sine_out[18] O
sine_out[19] O
sine_out[1] O
sine_out[20] O
sine_out[21] O
sine_out[22] O
sine_out[23] O
sine_out[24] O
sine_out[25] O
sine_out[26] O
sine_out[27] O
sine_out[28] O
sine_out[29] O
sine_out[2] O
sine_out[30] O
sine_out[31] O
sine_out[32] O
sine_out[3] O
sine_out[4] O
sine_out[5] O
sine_out[6] O
sine_out[7] O
sine_out[8] O
sine_out[9] O

*D_NET *3 0.0079731
*CONN
*P clk I
*I *579:A I *D sg13g2_buf_8
*CAP
1 clk 0.00207392
2 *579:A 0
3 *3:15 0.000750113
4 *3:9 0.00282403
5 *3:9 *32:6 0
6 *3:9 *52:6 0
7 *3:9 *54:8 0.000534168
8 *3:9 *173:10 0.000177442
9 *3:9 *231:66 0
10 *3:15 *61:14 0.000134789
11 *3:15 *94:8 0
12 *3:15 *182:28 0
13 *3:15 *221:53 0
14 *3:15 *222:44 0.000393736
15 *3:15 *236:8 0.0010849
*RES
1 clk *3:9 42.3046 
2 *3:9 *3:15 49.991 
3 *3:15 *579:A 20 
*END

*D_NET *4 0.000736828
*CONN
*P rst I
*I *610:A I *D sg13g2_buf_1
*CAP
1 rst 0.000368414
2 *610:A 0.000368414
3 *610:A *50:8 0
4 *610:A *185:10 0
*RES
1 rst *610:A 44.1664 
*END

*D_NET *5 0.000736272
*CONN
*P sign O
*I *621:X O *D sg13g2_buf_2
*CAP
1 sign 0.000368136
2 *621:X 0.000368136
3 sign *621:A 0
*RES
1 *621:X sign 44.1612 
*END

*D_NET *6 0.000958878
*CONN
*P signB O
*I *632:X O *D sg13g2_buf_2
*CAP
1 signB 0.000479439
2 *632:X 0.000479439
3 signB *18:6 0
4 signB *207:30 0
*RES
1 *632:X signB 45.0264 
*END

*D_NET *7 0.00344222
*CONN
*P sine_out[0] O
*I *640:X O *D sg13g2_buf_2
*CAP
1 sine_out[0] 0.00127725
2 *640:X 0.000363773
3 *7:10 0.00164103
4 sine_out[0] sine_out[1] 0
5 sine_out[0] *209:22 0
6 sine_out[0] *247:10 0
7 *7:10 *628:A 8.00842e-05
8 *7:10 *157:32 8.00842e-05
9 *7:10 *169:26 0
10 *7:10 *191:10 0
*RES
1 *640:X *7:10 43.3578 
2 *7:10 sine_out[0] 34.9762 
*END

*D_NET *8 0.00362711
*CONN
*P sine_out[10] O
*I *641:X O *D sg13g2_buf_2
*CAP
1 sine_out[10] 0.000829117
2 *641:X 0.000841368
3 *8:12 0.00167049
4 sine_out[10] sine_out[11] 0
5 sine_out[10] sine_out[12] 0
6 sine_out[10] sine_out[9] 0
7 *8:12 *644:A 0
8 *8:12 *645:A 0.000142644
9 *8:12 *9:8 0
10 *8:12 *10:8 0
11 *8:12 *12:10 0.000143493
12 *8:12 *181:14 0
*RES
1 *641:X *8:12 48.1267 
2 *8:12 sine_out[10] 26.1285 
*END

*D_NET *9 0.00334958
*CONN
*P sine_out[11] O
*I *642:X O *D sg13g2_buf_2
*CAP
1 sine_out[11] 0.000257101
2 *642:X 0.000764185
3 *9:8 0.00102129
4 sine_out[11] sine_out[12] 0
5 *9:8 *642:A 0
6 *9:8 *11:10 0
7 *9:8 *38:6 0.00130701
8 sine_out[10] sine_out[11] 0
9 *8:12 *9:8 0
*RES
1 *642:X *9:8 49.1876 
2 *9:8 sine_out[11] 22.5956 
*END

*D_NET *10 0.00291355
*CONN
*P sine_out[12] O
*I *643:X O *D sg13g2_buf_2
*CAP
1 sine_out[12] 0.000533226
2 *643:X 0.000601614
3 *10:8 0.00113484
4 sine_out[12] sine_out[13] 0
5 *10:8 *12:10 0
6 *10:8 *181:14 0.000305763
7 *10:8 *186:14 0.000338104
8 sine_out[10] sine_out[12] 0
9 sine_out[11] sine_out[12] 0
10 *8:12 *10:8 0
*RES
1 *643:X *10:8 46.3757 
2 *10:8 sine_out[12] 25.0139 
*END

*D_NET *11 0.0030204
*CONN
*P sine_out[13] O
*I *644:X O *D sg13g2_buf_2
*CAP
1 sine_out[13] 0.000860697
2 *644:X 0.000321709
3 *11:10 0.00118241
4 sine_out[13] sine_out[14] 0
5 *11:10 *642:A 0
6 *11:10 *644:A 0
7 *11:10 *12:10 0
8 *11:10 *214:8 0.000655593
9 sine_out[12] sine_out[13] 0
10 *9:8 *11:10 0
*RES
1 *644:X *11:10 43.605 
2 *11:10 sine_out[13] 24.4406 
*END

*D_NET *12 0.00256656
*CONN
*P sine_out[14] O
*I *645:X O *D sg13g2_buf_2
*CAP
1 sine_out[14] 0.000826421
2 *645:X 0.000385111
3 *12:10 0.00121153
4 sine_out[14] sine_out[15] 0
5 *12:10 *214:8 0
6 sine_out[13] sine_out[14] 0
7 *8:12 *12:10 0.000143493
8 *10:8 *12:10 0
9 *11:10 *12:10 0
*RES
1 *645:X *12:10 43.5432 
2 *12:10 sine_out[14] 28.4872 
*END

*D_NET *13 0.00278955
*CONN
*P sine_out[15] O
*I *611:X O *D sg13g2_buf_2
*CAP
1 sine_out[15] 0.000885737
2 *611:X 0.000129809
3 *13:8 0.00101555
4 sine_out[15] sine_out[16] 0
5 *13:8 *181:14 0.000341204
6 *13:8 *181:29 0.00018211
7 *13:8 *214:8 0.000235141
8 sine_out[14] sine_out[15] 0
*RES
1 *611:X *13:8 42.3278 
2 *13:8 sine_out[15] 29.3524 
*END

*D_NET *14 0.00186251
*CONN
*P sine_out[16] O
*I *612:X O *D sg13g2_buf_2
*CAP
1 sine_out[16] 0.000462017
2 *612:X 0.00046924
3 *14:10 0.000931257
4 sine_out[16] sine_out[17] 0
5 *14:10 *15:8 0
6 *14:10 *187:14 0
7 sine_out[15] sine_out[16] 0
*RES
1 *612:X *14:10 45.2118 
2 *14:10 sine_out[16] 24.5938 
*END

*D_NET *15 0.00176715
*CONN
*P sine_out[17] O
*I *613:X O *D sg13g2_buf_2
*CAP
1 sine_out[17] 0.000461371
2 *613:X 0.000422206
3 *15:8 0.000883577
4 sine_out[17] sine_out[18] 0
5 *15:8 *613:A 0
6 *15:8 *16:10 0
7 *15:8 *187:14 0
8 sine_out[16] sine_out[17] 0
9 *14:10 *15:8 0
*RES
1 *613:X *15:8 44.8616 
2 *15:8 sine_out[17] 24.5938 
*END

*D_NET *16 0.00184228
*CONN
*P sine_out[18] O
*I *614:X O *D sg13g2_buf_2
*CAP
1 sine_out[18] 0.000387805
2 *614:X 0.000525622
3 *16:10 0.000913427
4 sine_out[18] sine_out[19] 0
5 *16:10 *613:A 0
6 *16:10 *614:A 1.54285e-05
7 *16:10 *17:10 0
8 sine_out[17] sine_out[18] 0
9 *15:8 *16:10 0
*RES
1 *614:X *16:10 45.8607 
2 *16:10 sine_out[18] 23.9449 
*END

*D_NET *17 0.00190842
*CONN
*P sine_out[19] O
*I *615:X O *D sg13g2_buf_2
*CAP
1 sine_out[19] 0.000463953
2 *615:X 0.000482545
3 *17:10 0.000946498
4 sine_out[19] sine_out[20] 0
5 *17:10 *614:A 0
6 *17:10 *19:10 0
7 *17:10 *20:10 0
8 *17:10 *190:12 1.54285e-05
9 sine_out[18] sine_out[19] 0
10 *16:10 *17:10 0
*RES
1 *615:X *17:10 45.459 
2 *17:10 sine_out[19] 21.2234 
*END

*D_NET *18 0.0044646
*CONN
*P sine_out[1] O
*I *616:X O *D sg13g2_buf_2
*CAP
1 sine_out[1] 0.000609771
2 *616:X 0.00108088
3 *18:6 0.00169065
4 sine_out[1] sine_out[2] 0
5 sine_out[1] sine_out[3] 0
6 *18:6 *633:A 0.000598852
7 *18:6 *29:8 0
8 *18:6 *33:10 0
9 *18:6 *34:12 0.000144956
10 *18:6 *207:30 0.000339496
11 signB *18:6 0
12 sine_out[0] sine_out[1] 0
*RES
1 *616:X *18:6 30.2691 
2 *18:6 sine_out[1] 45.8401 
*END

*D_NET *19 0.00197474
*CONN
*P sine_out[20] O
*I *617:X O *D sg13g2_buf_2
*CAP
1 sine_out[20] 0.000537398
2 *617:X 0.000449969
3 *19:10 0.000987368
4 sine_out[20] sine_out[21] 0
5 *19:10 *617:A 0
6 *19:10 *20:10 0
7 *19:10 *190:12 0
8 sine_out[19] sine_out[20] 0
9 *17:10 *19:10 0
*RES
1 *617:X *19:10 45.0573 
2 *19:10 sine_out[20] 25.2427 
*END

*D_NET *20 0.00191485
*CONN
*P sine_out[21] O
*I *618:X O *D sg13g2_buf_2
*CAP
1 sine_out[21] 0.000244971
2 *618:X 0.000712453
3 *20:10 0.000957424
4 sine_out[21] sine_out[22] 0
5 sine_out[21] sine_out[23] 0
6 *20:10 *617:A 0
7 *20:10 *21:8 0
8 sine_out[20] sine_out[21] 0
9 *17:10 *20:10 0
10 *19:10 *20:10 0
*RES
1 *618:X *20:10 48.1164 
2 *20:10 sine_out[21] 22.4308 
*END

*D_NET *21 0.00190542
*CONN
*P sine_out[22] O
*I *619:X O *D sg13g2_buf_2
*CAP
1 sine_out[22] 0.000180495
2 *619:X 0.000772216
3 *21:8 0.000952711
4 sine_out[22] sine_out[23] 0
5 *21:8 *22:10 0
6 sine_out[21] sine_out[22] 0
7 *20:10 *21:8 0
*RES
1 *619:X *21:8 48.9713 
2 *21:8 sine_out[22] 21.8231 
*END

*D_NET *22 0.00217164
*CONN
*P sine_out[23] O
*I *620:X O *D sg13g2_buf_2
*CAP
1 sine_out[23] 0.000532247
2 *620:X 0.000553571
3 *22:10 0.00108582
4 sine_out[23] sine_out[24] 0
5 sine_out[23] sine_out[25] 0
6 *22:10 *23:8 0
7 sine_out[21] sine_out[23] 0
8 sine_out[22] sine_out[23] 0
9 *21:8 *22:10 0
*RES
1 *620:X *22:10 46.0461 
2 *22:10 sine_out[23] 24.8291 
*END

*D_NET *23 0.00208091
*CONN
*P sine_out[24] O
*I *622:X O *D sg13g2_buf_2
*CAP
1 sine_out[24] 0.000296336
2 *622:X 0.000744117
3 *23:8 0.00104045
4 sine_out[24] sine_out[25] 0
5 *23:8 *24:10 0
6 sine_out[23] sine_out[24] 0
7 *22:10 *23:8 0
*RES
1 *622:X *23:8 48.5387 
2 *23:8 sine_out[24] 22.9973 
*END

*D_NET *24 0.00257643
*CONN
*P sine_out[25] O
*I *623:X O *D sg13g2_buf_2
*CAP
1 sine_out[25] 0.00056722
2 *623:X 0.00054107
3 *24:10 0.00110829
4 sine_out[25] sine_out[26] 0
5 *24:10 *441:B1 0
6 *24:10 *25:10 0.00028648
7 *24:10 *26:10 7.33661e-05
8 sine_out[23] sine_out[25] 0
9 sine_out[24] sine_out[25] 0
10 *23:8 *24:10 0
*RES
1 *623:X *24:10 46.3242 
2 *24:10 sine_out[25] 24.6758 
*END

*D_NET *25 0.00293465
*CONN
*P sine_out[26] O
*I *624:X O *D sg13g2_buf_2
*CAP
1 sine_out[26] 0.000546263
2 *624:X 0.000777824
3 *25:10 0.00132409
4 sine_out[26] sine_out[27] 0
5 *25:10 *26:10 0
6 sine_out[25] sine_out[26] 0
7 *24:10 *25:10 0.00028648
*RES
1 *624:X *25:10 48.0237 
2 *25:10 sine_out[26] 25.2427 
*END

*D_NET *26 0.0030486
*CONN
*P sine_out[27] O
*I *625:X O *D sg13g2_buf_2
*CAP
1 sine_out[27] 0.000609348
2 *625:X 0.000806159
3 *26:10 0.00141551
4 sine_out[27] sine_out[28] 0
5 *26:10 *31:14 0.000144216
6 *26:10 *32:6 0
7 sine_out[26] sine_out[27] 0
8 *24:10 *26:10 7.33661e-05
9 *25:10 *26:10 0
*RES
1 *625:X *26:10 47.8383 
2 *26:10 sine_out[27] 21.1961 
*END

*D_NET *27 0.00390569
*CONN
*P sine_out[28] O
*I *626:X O *D sg13g2_buf_2
*CAP
1 sine_out[28] 0.00110966
2 *626:X 0.000268869
3 *27:8 0.00137853
4 sine_out[28] sine_out[29] 0
5 *27:8 *442:A1 0.000287256
6 *27:8 *78:8 0
7 *27:8 *173:18 0.000317215
8 *27:8 *187:14 0.000181279
9 *27:8 *197:10 0.00034079
10 *27:8 *224:60 2.20966e-05
11 *27:8 *230:10 0
12 sine_out[27] sine_out[28] 0
*RES
1 *626:X *27:8 44.0582 
2 *27:8 sine_out[28] 26.6666 
*END

*D_NET *28 0.00341482
*CONN
*P sine_out[29] O
*I *627:X O *D sg13g2_buf_2
*CAP
1 sine_out[29] 0.00147659
2 *627:X 0.000167571
3 *28:8 0.00164416
4 sine_out[29] sine_out[30] 0
5 sine_out[29] *201:14 0
6 sine_out[29] *223:12 0
7 sine_out[29] *224:35 0
8 *28:8 *461:B1 0.00012651
9 *28:8 *30:10 0
10 *28:8 *206:8 0
11 sine_out[28] sine_out[29] 0
*RES
1 *627:X *28:8 41.339 
2 *28:8 sine_out[29] 25.5704 
*END

*D_NET *29 0.00318756
*CONN
*P sine_out[2] O
*I *628:X O *D sg13g2_buf_2
*CAP
1 sine_out[2] 0.000414445
2 *628:X 0.000904522
3 *29:8 0.00131897
4 sine_out[2] sine_out[3] 0
5 sine_out[2] sine_out[4] 0
6 *29:8 *633:A 0.000274812
7 *29:8 *33:10 0
8 *29:8 *36:12 0
9 *29:8 *210:14 0
10 *29:8 *211:22 0
11 *29:8 *232:12 0.000274812
12 sine_out[1] sine_out[2] 0
13 *18:6 *29:8 0
*RES
1 *628:X *29:8 48.2636 
2 *29:8 sine_out[2] 24.1612 
*END

*D_NET *30 0.00338188
*CONN
*P sine_out[30] O
*I *629:X O *D sg13g2_buf_2
*CAP
1 sine_out[30] 0.00138658
2 *629:X 0.000224029
3 *30:10 0.0016106
4 sine_out[30] sine_out[31] 0
5 sine_out[30] *223:12 8.04483e-05
6 *30:10 *629:A 0
7 *30:10 *31:14 8.02267e-05
8 *30:10 *204:8 0
9 *30:10 *206:8 0
10 sine_out[29] sine_out[30] 0
11 *28:8 *30:10 0
*RES
1 *629:X *30:10 42.1218 
2 *30:10 sine_out[30] 34.9762 
*END

*D_NET *31 0.00468771
*CONN
*P sine_out[31] O
*I *630:X O *D sg13g2_buf_2
*CAP
1 sine_out[31] 0.000831868
2 *630:X 0.000923321
3 *31:14 0.00175519
4 sine_out[31] sine_out[32] 0
5 *31:14 *427:B 0
6 *31:14 *625:A 0
7 *31:14 *629:A 0
8 *31:14 *631:A 0.000209756
9 *31:14 *32:6 0.000534168
10 *31:14 *235:135 0.000208968
11 sine_out[30] sine_out[31] 0
12 *26:10 *31:14 0.000144216
13 *30:10 *31:14 8.02267e-05
*RES
1 *630:X *31:14 49.8056 
2 *31:14 sine_out[31] 28.4872 
*END

*D_NET *32 0.00504228
*CONN
*P sine_out[32] O
*I *631:X O *D sg13g2_buf_2
*CAP
1 sine_out[32] 0.000516712
2 *631:X 0.00138196
3 *32:6 0.00189867
4 *32:6 *427:B 0.000176741
5 *32:6 *631:A 0
6 *32:6 *173:10 0.000534026
7 sine_out[31] sine_out[32] 0
8 *3:9 *32:6 0
9 *26:10 *32:6 0
10 *31:14 *32:6 0.000534168
*RES
1 *631:X *32:6 34.1625 
2 *32:6 sine_out[32] 45.2427 
*END

*D_NET *33 0.00293575
*CONN
*P sine_out[3] O
*I *633:X O *D sg13g2_buf_2
*CAP
1 sine_out[3] 0.000580583
2 *633:X 0.000814744
3 *33:10 0.00139533
4 sine_out[3] sine_out[4] 0
5 *33:10 *34:12 0.000145098
6 sine_out[1] sine_out[3] 0
7 sine_out[2] sine_out[3] 0
8 *18:6 *33:10 0
9 *29:8 *33:10 0
*RES
1 *633:X *33:10 48.24 
2 *33:10 sine_out[3] 25.8092 
*END

*D_NET *34 0.00264612
*CONN
*P sine_out[4] O
*I *634:X O *D sg13g2_buf_2
*CAP
1 sine_out[4] 0.000803822
2 *634:X 0.000374212
3 *34:12 0.00117803
4 sine_out[4] sine_out[5] 0
5 *34:12 *35:8 0
6 *34:12 *247:14 0
7 sine_out[2] sine_out[4] 0
8 sine_out[3] sine_out[4] 0
9 *18:6 *34:12 0.000144956
10 *33:10 *34:12 0.000145098
*RES
1 *634:X *34:12 44.1097 
2 *34:12 sine_out[4] 25.0853 
*END

*D_NET *35 0.0022739
*CONN
*P sine_out[5] O
*I *635:X O *D sg13g2_buf_2
*CAP
1 sine_out[5] 0.000884285
2 *635:X 0.000252667
3 *35:8 0.00113695
4 sine_out[5] sine_out[6] 0
5 *35:8 *247:14 0
6 sine_out[4] sine_out[5] 0
7 *34:12 *35:8 0
*RES
1 *635:X *35:8 42.575 
2 *35:8 sine_out[5] 25.102 
*END

*D_NET *36 0.00224506
*CONN
*P sine_out[6] O
*I *636:X O *D sg13g2_buf_2
*CAP
1 sine_out[6] 0.000339492
2 *636:X 0.000775338
3 *36:12 0.00111483
4 sine_out[6] sine_out[7] 0
5 *36:12 *37:10 0
6 *36:12 *211:22 1.54008e-05
7 sine_out[5] sine_out[6] 0
8 *29:8 *36:12 0
*RES
1 *636:X *36:12 48.5902 
2 *36:12 sine_out[6] 23.296 
*END

*D_NET *37 0.00181107
*CONN
*P sine_out[7] O
*I *637:X O *D sg13g2_buf_2
*CAP
1 sine_out[7] 5.93545e-05
2 *637:X 0.000838453
3 *37:10 0.000897808
4 sine_out[7] sine_out[8] 0
5 *37:10 *637:A 1.54556e-05
6 *37:10 *38:6 0
7 *37:10 *39:10 0
8 sine_out[6] sine_out[7] 0
9 *36:12 *37:10 0
*RES
1 *637:X *37:10 49.5996 
2 *37:10 sine_out[7] 20.7004 
*END

*D_NET *38 0.00353834
*CONN
*P sine_out[8] O
*I *638:X O *D sg13g2_buf_2
*CAP
1 sine_out[8] 0.000119962
2 *638:X 0.000995701
3 *38:6 0.00111566
4 sine_out[8] sine_out[9] 0
5 sine_out[8] *39:10 0
6 *38:6 *637:A 0
7 *38:6 *639:A 0
8 *38:6 *642:A 0
9 *38:6 *644:A 0
10 *38:6 *39:10 0
11 sine_out[7] sine_out[8] 0
12 *9:8 *38:6 0.00130701
13 *37:10 *38:6 0
*RES
1 *638:X *38:6 30.918 
2 *38:6 sine_out[8] 41.2978 
*END

*D_NET *39 0.00217562
*CONN
*P sine_out[9] O
*I *639:X O *D sg13g2_buf_2
*CAP
1 sine_out[9] 0.000306832
2 *639:X 0.000780975
3 *39:10 0.00108781
4 *39:10 *637:A 0
5 sine_out[10] sine_out[9] 0
6 sine_out[8] sine_out[9] 0
7 sine_out[8] *39:10 0
8 *37:10 *39:10 0
9 *38:6 *39:10 0
*RES
1 *639:X *39:10 48.1782 
2 *39:10 sine_out[9] 22.8634 
*END

*D_NET *40 0.00116293
*CONN
*I *578:D I *D sg13g2_dfrbpq_1
*I *496:Y O *D sg13g2_inv_1
*CAP
1 *578:D 0.000294041
2 *496:Y 9.39124e-05
3 *40:8 0.000387953
4 *578:D *215:27 0.000144956
5 *578:D *215:34 0.000242071
6 *40:8 *216:8 0
*RES
1 *496:Y *40:8 41.0918 
2 *40:8 *578:D 43.1312 
*END

*D_NET *41 0.000831069
*CONN
*I *577:D I *D sg13g2_dfrbpq_1
*I *491:Y O *D sg13g2_xnor2_1
*CAP
1 *577:D 0.000415535
2 *491:Y 0.000415535
3 *577:D *577:RESET_B 0
*RES
1 *491:Y *577:D 44.5114 
*END

*D_NET *42 0.00133808
*CONN
*I *586:A I *D sg13g2_buf_2
*I *585:A I *D sg13g2_buf_8
*I *578:Q O *D sg13g2_dfrbpq_1
*CAP
1 *586:A 3.09121e-05
2 *585:A 0.000229654
3 *578:Q 0.000157491
4 *42:10 0.000260566
5 *42:8 0.000157491
6 *585:A *564:A 0
7 *585:A *573:RESET_B 0
8 *585:A *221:10 0
9 *42:8 *573:CLK 0.000501961
10 *42:8 *215:16 0
*RES
1 *578:Q *42:8 42.3278 
2 *42:8 *42:10 20 
3 *42:10 *585:A 22.3999 
4 *42:10 *586:A 20.3193 
*END

*D_NET *43 0.000434424
*CONN
*I *609:A I *D sg13g2_dlygate4sd3_1
*I *570:Q O *D sg13g2_dfrbpq_1
*CAP
1 *609:A 0.000217212
2 *570:Q 0.000217212
3 *609:A *607:A 0
4 *609:A *241:12 0
*RES
1 *570:Q *609:A 42.4926 
*END

*D_NET *44 0.00128663
*CONN
*I *455:A2 I *D sg13g2_a21oi_1
*I *605:A I *D sg13g2_buf_8
*I *513:B I *D sg13g2_nand3_1
*I *571:Q O *D sg13g2_dfrbpq_2
*CAP
1 *455:A2 4.72978e-05
2 *605:A 0.000111028
3 *513:B 0.000224066
4 *571:Q 0.000187113
5 *44:8 0.000474909
6 *455:A2 *576:D 0
7 *513:B *571:CLK 0
8 *513:B *168:10 0
9 *513:B *226:14 0
10 *605:A *571:CLK 0
11 *605:A *224:16 0
12 *44:8 *487:B 0.000242213
13 *44:8 *231:16 0
*RES
1 *571:Q *44:8 41.6171 
2 *44:8 *513:B 42.3278 
3 *44:8 *605:A 41.0918 
4 *571:Q *455:A2 40.5974 
*END

*D_NET *45 0.000930543
*CONN
*I *571:D I *D sg13g2_dfrbpq_2
*I *469:Y O *D sg13g2_xnor2_1
*CAP
1 *571:D 0.00034428
2 *469:Y 0.00034428
3 *571:D *450:B1 0
4 *571:D *469:A 0.000241983
5 *571:D *470:A2 0
6 *571:D *571:RESET_B 0
7 *571:D *600:A 0
8 *571:D *71:10 0
9 *571:D *243:14 0
*RES
1 *469:Y *571:D 43.6977 
*END

*D_NET *46 0.000604666
*CONN
*I *603:A I *D sg13g2_buf_8
*I *572:Q O *D sg13g2_dfrbpq_1
*CAP
1 *603:A 0.000198027
2 *572:Q 0.000198027
3 *603:A *472:A 0.000208612
4 *603:A *580:A 0
*RES
1 *572:Q *603:A 42.2454 
*END

*D_NET *47 0.00311721
*CONN
*I *572:D I *D sg13g2_dfrbpq_1
*I *473:X O *D sg13g2_xor2_1
*CAP
1 *572:D 0
2 *473:X 0.000100997
3 *47:14 0.000947889
4 *47:8 0.00104889
5 *47:8 *474:A2 0.000143852
6 *47:8 *86:8 0
7 *47:14 *56:74 0
8 *47:14 *182:8 0.000875588
9 *47:14 *183:55 0
*RES
1 *473:X *47:8 40.9682 
2 *47:8 *47:14 30.5575 
3 *47:14 *572:D 20 
*END

*D_NET *48 0.000517355
*CONN
*I *601:A I *D sg13g2_buf_8
*I *573:Q O *D sg13g2_dfrbpq_1
*CAP
1 *601:A 0.000218954
2 *573:Q 0.000218954
3 *601:A *583:A 0
4 *601:A *215:10 7.94462e-05
*RES
1 *573:Q *601:A 42.4617 
*END

*D_NET *49 0.000660081
*CONN
*I *573:D I *D sg13g2_dfrbpq_1
*I *477:X O *D sg13g2_xor2_1
*CAP
1 *573:D 0.000330041
2 *477:X 0.000330041
3 *573:D *472:A 0
4 *573:D *50:14 0
5 *573:D *221:10 0
*RES
1 *477:X *573:D 43.3681 
*END

*D_NET *50 0.00394001
*CONN
*I *599:A I *D sg13g2_buf_8
*I *597:A I *D sg13g2_buf_2
*I *574:Q O *D sg13g2_dfrbpq_1
*CAP
1 *599:A 0.000135185
2 *597:A 0
3 *574:Q 0.000378923
4 *50:14 0.00155097
5 *50:8 0.00179471
6 *50:8 *185:10 8.02269e-05
7 *50:14 *475:B 0
8 *50:14 *477:B 0
9 *50:14 *480:A2 0
10 *50:14 *91:12 0
11 *50:14 *185:10 0
12 *50:14 *215:10 0
13 *50:14 *222:10 0
14 *50:14 *222:29 0
15 *50:14 *234:10 0
16 *573:D *50:14 0
17 *610:A *50:8 0
*RES
1 *574:Q *50:8 42.4823 
2 *50:8 *50:14 35.1616 
3 *50:14 *597:A 20 
4 *574:Q *599:A 41.4008 
*END

*D_NET *51 0.00070481
*CONN
*I *574:D I *D sg13g2_dfrbpq_1
*I *481:X O *D sg13g2_xor2_1
*CAP
1 *574:D 0.000320878
2 *481:X 0.000320878
3 *574:D *484:A2 0
4 *574:D *567:A 0
5 *574:D *91:12 0
6 *574:D *215:10 0
7 *574:D *215:65 0
8 *574:D *236:12 1.53556e-05
9 *574:D *236:22 4.76973e-05
*RES
1 *481:X *574:D 43.4299 
*END

*D_NET *52 0.00156179
*CONN
*I *594:A I *D sg13g2_buf_8
*I *592:A I *D sg13g2_buf_2
*I *575:Q O *D sg13g2_dfrbpq_1
*CAP
1 *594:A 2.94455e-05
2 *592:A 0
3 *575:Q 0.000307659
4 *52:14 0.000269821
5 *52:6 0.000606926
6 *594:A *54:8 4.77702e-05
7 *52:6 *54:8 0.000177299
8 *52:14 *184:40 0.000122871
9 *52:14 *231:10 0
10 *52:14 *236:82 0
11 *3:9 *52:6 0
*RES
1 *575:Q *52:6 23.1312 
2 *52:6 *52:14 43.3887 
3 *52:14 *592:A 20 
4 *52:6 *594:A 20.3193 
*END

*D_NET *53 0.00042262
*CONN
*I *575:D I *D sg13g2_dfrbpq_1
*I *485:X O *D sg13g2_xor2_1
*CAP
1 *575:D 0.000122718
2 *485:X 0.000122718
3 *575:D *567:A 0.000177184
4 *575:D *215:77 0
*RES
1 *485:X *575:D 41.1845 
*END

*D_NET *54 0.00233336
*CONN
*I *590:A I *D sg13g2_buf_8
*I *589:A I *D sg13g2_buf_2
*I *576:Q O *D sg13g2_dfrbpq_1
*CAP
1 *590:A 0
2 *589:A 0
3 *576:Q 0.000333207
4 *54:14 0.000202458
5 *54:8 0.000535664
6 *54:8 *231:6 0
7 *54:14 *226:12 0
8 *54:14 *231:10 0.00050279
9 *594:A *54:8 4.77702e-05
10 *3:9 *54:8 0.000534168
11 *52:6 *54:8 0.000177299
*RES
1 *576:Q *54:8 23.914 
2 *54:8 *54:14 43.0694 
3 *54:14 *589:A 20 
4 *54:8 *590:A 20 
*END

*D_NET *55 0.00180759
*CONN
*I *576:D I *D sg13g2_dfrbpq_1
*I *488:Y O *D sg13g2_xnor2_1
*CAP
1 *576:D 0.000603216
2 *488:Y 0.000603216
3 *576:D *488:A 0
4 *576:D *488:B 8.00842e-05
5 *576:D *567:A 0
6 *576:D *215:77 0.000498899
7 *576:D *231:28 2.21754e-05
8 *455:A2 *576:D 0
*RES
1 *488:Y *576:D 46.3557 
*END

*D_NET *56 0.0123643
*CONN
*I *470:A1 I *D sg13g2_o21ai_1
*I *411:A I *D sg13g2_nor2_1
*I *415:A I *D sg13g2_nor2_1
*I *440:A1 I *D sg13g2_o21ai_1
*I *570:D I *D sg13g2_dfrbpq_1
*I *405:Y O *D sg13g2_inv_2
*CAP
1 *470:A1 0
2 *411:A 0
3 *415:A 0.0007325
4 *440:A1 0.000227908
5 *570:D 7.86339e-05
6 *405:Y 0.000223594
7 *56:74 0.00101525
8 *56:63 6.08042e-05
9 *56:33 0.00162777
10 *56:23 0.00190855
11 *56:19 0.00247935
12 *56:8 0.000585946
13 *415:A *415:B 0
14 *415:A *420:A 0
15 *415:A *521:A 0.000128355
16 *415:A *531:B 4.75166e-05
17 *415:A *79:14 8.01995e-05
18 *415:A *79:27 7.51285e-05
19 *415:A *167:36 0
20 *415:A *169:26 0.000177928
21 *415:A *174:12 0
22 *415:A *220:18 0.000234543
23 *415:A *220:79 0
24 *415:A *220:92 0
25 *415:A *226:36 0
26 *415:A *234:39 0.000336809
27 *415:A *234:92 0.000440995
28 *440:A1 *559:A2 0.000179856
29 *440:A1 *66:35 0.000285503
30 *440:A1 *169:26 0.000493047
31 *570:D *495:A1 0
32 *570:D *495:A2 0
33 *56:8 *97:10 0
34 *56:8 *221:68 0
35 *56:19 *221:68 0
36 *56:23 *133:22 0
37 *56:33 *133:35 0
38 *56:33 *168:93 0.000334942
39 *56:33 *213:16 0.000243632
40 *56:63 *500:B 7.47964e-05
41 *56:63 *114:8 7.31628e-05
42 *56:74 *470:A2 1.53835e-05
43 *56:74 *83:10 0
44 *56:74 *182:8 0
45 *56:74 *183:55 0
46 *56:74 *221:38 0
47 *56:74 *221:45 4.77425e-05
48 *56:74 *221:53 7.43655e-05
49 *56:74 *221:62 8.00842e-05
50 *56:74 *221:68 0
51 *47:14 *56:74 0
*RES
1 *405:Y *56:8 42.0806 
2 *56:8 *570:D 40.7519 
3 *56:8 *56:19 2.575 
4 *56:19 *56:23 28.3224 
5 *56:23 *56:33 26.3448 
6 *56:33 *440:A1 43.0797 
7 *56:33 *415:A 47.5293 
8 *56:23 *56:63 40.6695 
9 *56:63 *411:A 20 
10 *56:19 *56:74 30.2485 
11 *56:74 *470:A1 20 
*END

*D_NET *57 0.00063481
*CONN
*I *570:RESET_B I *D sg13g2_dfrbpq_1
*I *406:Y O *D sg13g2_inv_1
*CAP
1 *570:RESET_B 0.000198456
2 *406:Y 0.000198456
3 *570:RESET_B *495:A2 0.000237898
4 *570:RESET_B *183:55 0
*RES
1 *406:Y *570:RESET_B 42.2145 
*END

*D_NET *58 0.000601191
*CONN
*I *571:RESET_B I *D sg13g2_dfrbpq_2
*I *562:Y O *D sg13g2_inv_1
*CAP