*SPEF "ieee 1481-1999"
*DESIGN "DigitalSine"
*DATE "20:31:09 Thursday December 11, 2025"
*VENDOR "The OpenROAD Project"
*PROGRAM "OpenROAD"
*VERSION "341650e72dad0dc8571822ff8c5d9c5e365327f7"
*DESIGN_FLOW "NAME_SCOPE LOCAL" "PIN_CAP NONE"
*DIVIDER /
*DELIMITER :
*BUS_DELIMITER []
*T_UNIT 1 NS
*C_UNIT 1 PF
*R_UNIT 1 OHM
*L_UNIT 1 HENRY

*NAME_MAP
*3 clk
*4 rst
*5 sign
*6 signB
*7 sine_out[0]
*8 sine_out[10]
*9 sine_out[11]
*10 sine_out[12]
*11 sine_out[13]
*12 sine_out[14]
*13 sine_out[15]
*14 sine_out[16]
*15 sine_out[17]
*16 sine_out[18]
*17 sine_out[19]
*18 sine_out[1]
*19 sine_out[20]
*20 sine_out[21]
*21 sine_out[22]
*22 sine_out[23]
*23 sine_out[24]
*24 sine_out[25]
*25 sine_out[26]
*26 sine_out[27]
*27 sine_out[28]
*28 sine_out[29]
*29 sine_out[2]
*30 sine_out[30]
*31 sine_out[31]
*32 sine_out[32]
*33 sine_out[3]
*34 sine_out[4]
*35 sine_out[5]
*36 sine_out[6]
*37 sine_out[7]
*38 sine_out[8]
*39 sine_out[9]
*40 CTRL\.P0
*41 CTRL\.P1
*42 CTRL\.S0
*43 DPATH\.SUM\.Cout0
*44 DPATH\.SUM\.fa_1\.A
*45 DPATH\.SUM\.fa_1\.S
*46 DPATH\.SUM\.fa_2\.A
*47 DPATH\.SUM\.fa_2\.S
*48 DPATH\.SUM\.fa_3\.A
*49 DPATH\.SUM\.fa_3\.S
*50 DPATH\.SUM\.fa_4\.A
*51 DPATH\.SUM\.fa_4\.S
*52 DPATH\.SUM\.fa_5\.A
*53 DPATH\.SUM\.fa_5\.S
*54 DPATH\.SUM\.fa_6\.A
*55 DPATH\.SUM\.fa_6\.S
*56 DPATH\.SUM\.ha_0\.S
*57 _000_
*58 _001_
*59 _002_
*60 _003_
*61 _004_
*62 _005_
*63 _006_
*64 _007_
*65 _008_
*66 _009_
*67 _010_
*68 _011_
*69 _012_
*70 _013_
*71 _014_
*72 _015_
*73 _016_
*74 _017_
*75 _018_
*76 _019_
*77 _020_
*78 _021_
*79 _022_
*80 _023_
*81 _024_
*82 _025_
*83 _026_
*84 _027_
*85 _028_
*86 _029_
*87 _030_
*88 _031_
*89 _032_
*90 _033_
*91 _034_
*92 _035_
*93 _036_
*94 _037_
*95 _038_
*96 _039_
*97 _040_
*98 _041_
*99 _042_
*100 _043_
*101 _044_
*102 _045_
*103 _046_
*104 _047_
*105 _048_
*106 _049_
*107 _050_
*108 _051_
*109 _052_
*110 _053_
*111 _054_
*112 _055_
*113 _056_
*114 _057_
*115 _058_
*116 _059_
*117 _060_
*118 _061_
*119 _062_
*120 _063_
*121 _064_
*122 _065_
*123 _066_
*124 _067_
*125 _068_
*126 _069_
*127 _070_
*128 _071_
*129 _072_
*130 _073_
*131 _074_
*132 _075_
*133 _076_
*134 _077_
*135 _078_
*136 _079_
*137 _080_
*138 _081_
*139 _082_
*140 _083_
*141 _084_
*142 _085_
*143 _086_
*144 _087_
*145 _088_
*146 _089_
*147 _090_
*148 _091_
*149 _092_
*150 _093_
*151 _094_
*152 _095_
*153 _096_
*154 _097_
*155 _098_
*156 _099_
*157 _100_
*158 _101_
*159 _102_
*160 _103_
*161 _104_
*162 _105_
*163 _106_
*164 _107_
*165 _108_
*166 _109_
*167 _110_
*168 _111_
*169 _112_
*170 _113_
*171 _114_
*172 _115_
*173 _116_
*174 _117_
*175 _118_
*176 _119_
*177 _120_
*178 _121_
*179 _122_
*180 _123_
*181 _124_
*182 clknet_0_clk
*183 clknet_1_0__leaf_clk
*184 clknet_1_1__leaf_clk
*185 net1
*186 net10
*187 net11
*188 net12
*189 net13
*190 net14
*191 net15
*192 net16
*193 net17
*194 net18
*195 net19
*196 net2
*197 net20
*198 net21
*199 net22
*200 net23
*201 net24
*202 net25
*203 net26
*204 net27
*205 net28
*206 net29
*207 net3
*208 net30
*209 net31
*210 net32
*211 net33
*212 net34
*213 net35
*214 net36
*215 net37
*216 net38
*217 net39
*218 net4
*219 net40
*220 net41
*221 net42
*222 net43
*223 net44
*224 net45
*225 net46
*226 net47
*227 net48
*228 net5
*229 net51
*230 net52
*231 net53
*232 net54
*233 net55
*234 net56
*235 net57
*236 net58
*237 net59
*238 net6
*239 net60
*240 net61
*241 net62
*242 net63
*243 net64
*244 net65
*245 net66
*246 net67
*247 net68
*248 net69
*249 net7
*250 net70
*251 net71
*252 net72
*253 net73
*254 net74
*255 net8
*256 net9
*257 FILLER_0_104
*258 FILLER_0_111
*259 FILLER_0_118
*260 FILLER_0_125
*261 FILLER_0_33
*262 FILLER_0_42
*263 FILLER_0_63
*264 FILLER_0_70
*265 FILLER_0_8
*266 FILLER_0_90
*267 FILLER_0_92
*268 FILLER_0_97
*269 FILLER_10_115
*270 FILLER_10_17
*271 FILLER_10_21
*272 FILLER_10_62
*273 FILLER_10_64
*274 FILLER_10_86
*275 FILLER_11_0
*276 FILLER_11_125
*277 FILLER_11_38
*278 FILLER_11_40
*279 FILLER_11_46
*280 FILLER_11_51
*281 FILLER_11_55
*282 FILLER_11_74
*283 FILLER_11_87
*284 FILLER_11_94
*285 FILLER_11_98
*286 FILLER_12_0
*287 FILLER_12_119
*288 FILLER_12_13
*289 FILLER_12_17
*290 FILLER_12_21
*291 FILLER_12_23
*292 FILLER_12_37
*293 FILLER_12_52
*294 FILLER_12_54
*295 FILLER_12_68
*296 FILLER_12_7
*297 FILLER_12_70
*298 FILLER_12_84
*299 FILLER_12_9
*300 FILLER_13_0
*301 FILLER_13_102
*302 FILLER_13_109
*303 FILLER_13_116
*304 FILLER_13_123
*305 FILLER_13_127
*306 FILLER_13_14
*307 FILLER_13_18
*308 FILLER_13_7
*309 FILLER_13_72
*310 FILLER_13_94
*311 FILLER_13_98
*312 FILLER_14_0
*313 FILLER_14_121
*314 FILLER_14_128
*315 FILLER_14_14
*316 FILLER_14_47
*317 FILLER_14_7
*318 FILLER_14_79
*319 FILLER_15_0
*320 FILLER_15_105
*321 FILLER_15_112
*322 FILLER_15_119
*323 FILLER_15_126
*324 FILLER_15_128
*325 FILLER_15_14
*326 FILLER_15_21
*327 FILLER_15_25
*328 FILLER_15_7
*329 FILLER_15_92
*330 FILLER_15_99
*331 FILLER_1_105
*332 FILLER_1_112
*333 FILLER_1_119
*334 FILLER_1_126
*335 FILLER_1_128
*336 FILLER_1_32
*337 FILLER_1_64
*338 FILLER_1_68
*339 FILLER_1_8
*340 FILLER_1_97
*341 FILLER_2_111
*342 FILLER_2_118
*343 FILLER_2_125
*344 FILLER_2_18
*345 FILLER_2_20
*346 FILLER_2_26
*347 FILLER_2_31
*348 FILLER_2_49
*349 FILLER_2_64
*350 FILLER_2_66
*351 FILLER_2_87
*352 FILLER_2_89
*353 FILLER_3_105
*354 FILLER_3_115
*355 FILLER_3_25
*356 FILLER_3_4
*357 FILLER_3_58
*358 FILLER_3_98
*359 FILLER_4_110
*360 FILLER_4_27
*361 FILLER_4_29
*362 FILLER_4_50
*363 FILLER_4_99
*364 FILLER_5_102
*365 FILLER_5_120
*366 FILLER_5_52
*367 FILLER_5_54
*368 FILLER_5_77
*369 FILLER_5_79
*370 FILLER_5_91
*371 FILLER_6_100
*372 FILLER_6_105
*373 FILLER_6_109
*374 FILLER_6_59
*375 FILLER_6_69
*376 FILLER_6_79
*377 FILLER_6_8
*378 FILLER_6_90
*379 FILLER_7_10
*380 FILLER_7_101
*381 FILLER_7_32
*382 FILLER_7_34
*383 FILLER_7_44
*384 FILLER_7_46
*385 FILLER_7_65
*386 FILLER_7_74
*387 FILLER_7_8
*388 FILLER_7_83
*389 FILLER_7_90
*390 FILLER_7_92
*391 FILLER_8_124
*392 FILLER_8_53
*393 FILLER_8_74
*394 FILLER_8_82
*395 FILLER_8_86
*396 FILLER_9_124
*397 FILLER_9_28
*398 FILLER_9_58
*399 FILLER_9_86
*400 _125_
*401 _126_
*402 _127_
*403 _128_
*404 _129_
*405 _130_
*406 _131_
*407 _132_
*408 _133_
*409 _134_
*410 _135_
*411 _136_
*412 _137_
*413 _138_
*414 _139_
*415 _140_
*416 _141_
*417 _142_
*418 _143_
*419 _144_
*420 _145_
*421 _146_
*422 _147_
*423 _148_
*424 _149_
*425 _150_
*426 _151_
*427 _152_
*428 _153_
*429 _154_
*430 _155_
*431 _156_
*432 _157_
*433 _158_
*434 _159_
*435 _160_
*436 _161_
*437 _162_
*438 _163_
*439 _164_
*440 _165_
*441 _166_
*442 _167_
*443 _168_
*444 _169_
*445 _170_
*446 _171_
*447 _172_
*448 _173_
*449 _174_
*450 _175_
*451 _176_
*452 _177_
*453 _178_
*454 _179_
*455 _180_
*456 _181_
*457 _182_
*458 _183_
*459 _184_
*460 _185_
*461 _186_
*462 _187_
*463 _188_
*464 _189_
*465 _190_
*466 _191_
*467 _192_
*468 _193_
*469 _194_
*470 _195_
*471 _196_
*472 _197_
*473 _198_
*474 _199_
*475 _200_
*476 _201_
*477 _202_
*478 _203_
*479 _204_
*480 _205_
*481 _206_
*482 _207_
*483 _208_
*484 _209_
*485 _210_
*486 _211_
*487 _212_
*488 _213_
*489 _214_
*490 _215_
*491 _216_
*492 _217_
*493 _218_
*494 _219_
*495 _220_
*496 _221_
*497 _222_
*498 _223_
*499 _224_
*500 _225_
*501 _226_
*502 _227_
*503 _228_
*504 _229_
*505 _230_
*506 _231_
*507 _232_
*508 _233_
*509 _234_
*510 _235_
*511 _236_
*512 _237_
*513 _238_
*514 _239_
*515 _240_
*516 _241_
*517 _242_
*518 _243_
*519 _244_
*520 _245_
*521 _246_
*522 _247_
*523 _248_
*524 _249_
*525 _250_
*526 _251_
*527 _252_
*528 _253_
*529 _254_
*530 _255_
*531 _256_
*532 _257_
*533 _258_
*534 _259_
*535 _260_
*536 _261_
*537 _262_
*538 _263_
*539 _264_
*540 _265_
*541 _266_
*542 _267_
*543 _268_
*544 _269_
*545 _270_
*546 _271_
*547 _272_
*548 _273_
*549 _274_
*550 _275_
*551 _276_
*552 _277_
*553 _278_
*554 _279_
*555 _280_
*556 _281_
*557 _282_
*558 _283_
*559 _284_
*560 _285_
*561 _286_
*562 _287_
*563 _288_
*564 _289_
*565 _290_
*566 _291_
*567 _292_
*568 _293_
*569 _294_
*570 _295_
*571 _296_
*572 _297_
*573 _298_
*574 _299_
*575 _300_
*576 _301_
*577 clkbuf_0_clk
*578 clkbuf_1_0__f_clk
*579 clkbuf_1_1__f_clk
*580 clkload0
*581 fanout51
*582 fanout52
*583 fanout53
*584 fanout54
*585 fanout55
*586 fanout56
*587 fanout57
*588 fanout58
*589 fanout59
*590 fanout60
*591 fanout61
*592 fanout62
*593 fanout63
*594 fanout64
*595 fanout65
*596 fanout66
*597 fanout67
*598 fanout68
*599 fanout69
*600 fanout70
*601 fanout71
*602 fanout72
*603 fanout73
*604 fanout74
*605 hold1
*606 hold10
*607 hold11
*608 hold12
*609 hold2
*610 hold3
*611 hold4
*612 hold5
*613 hold6
*614 hold7
*615 hold8
*616 hold9
*617 input1
*618 output10
*619 output11
*620 output12
*621 output13
*622 output14
*623 output15
*624 output16
*625 output17
*626 output18
*627 output19
*628 output2
*629 output20
*630 output21
*631 output22
*632 output23
*633 output24
*634 output25
*635 output26
*636 output27
*637 output28
*638 output29
*639 output3
*640 output30
*641 output31
*642 output32
*643 output33
*644 output34
*645 output35
*646 output36
*647 output4
*648 output5
*649 output6
*650 output7
*651 output8
*652 output9

*PORTS
clk I
rst I
sign O
signB O
sine_out[0] O
sine_out[10] O
sine_out[11] O
sine_out[12] O
sine_out[13] O
sine_out[14] O
sine_out[15] O
sine_out[16] O
sine_out[17] O
sine_out[18] O
sine_out[19] O
sine_out[1] O
sine_out[20] O
sine_out[21] O
sine_out[22] O
sine_out[23] O
sine_out[24] O
sine_out[25] O
sine_out[26] O
sine_out[27] O
sine_out[28] O
sine_out[29] O
sine_out[2] O
sine_out[30] O
sine_out[31] O
sine_out[32] O
sine_out[3] O
sine_out[4] O
sine_out[5] O
sine_out[6] O
sine_out[7] O
sine_out[8] O
sine_out[9] O

*D_NET *3 0.00525914
*CONN
*P clk I
*I *577:A I *D sg13g2_buf_8
*CAP
1 clk 0.000747427
2 *577:A 0
3 *3:15 0.000778129
4 *3:11 0.00152556
5 *3:11 sine_out[23] 0
6 *3:11 *50:6 0
7 *3:11 *50:16 0
8 *3:11 *244:6 0
9 *3:15 *473:B 0
10 *3:15 *61:8 0
11 *3:15 *90:23 0
12 *3:15 *184:32 0
13 *3:15 *231:21 0
14 *3:15 *242:12 0.00220803
*RES
1 clk *3:11 48.0906 
2 *3:11 *3:15 31.9686 
3 *3:15 *577:A 20 
*END

*D_NET *4 0.00175585
*CONN
*P rst I
*I *617:A I *D sg13g2_buf_1
*CAP
1 rst 0.000854039
2 *617:A 0.000854039
3 *617:A *185:10 4.77699e-05
*RES
1 rst *617:A 30.6193 
*END

*D_NET *5 0.00189788
*CONN
*P sign O
*I *628:X O *D sg13g2_buf_1
*CAP
1 sign 0.000948938
2 *628:X 0.000948938
3 sign sine_out[27] 0
4 sign *486:B 0
*RES
1 *628:X sign 32.1746 
*END

*D_NET *6 0.00408195
*CONN
*P signB O
*I *639:X O *D sg13g2_buf_1
*CAP
1 signB 0.000875899
2 *639:X 0.000484335
3 *6:10 0.00136023
4 signB sine_out[27] 0
5 *6:10 *26:8 0.00136148
6 *6:10 *254:69 0
*RES
1 *639:X *6:10 47.5911 
2 *6:10 signB 28.7035 
*END

*D_NET *7 0.00131122
*CONN
*P sine_out[0] O
*I *647:X O *D sg13g2_buf_1
*CAP
1 sine_out[0] 0.000458914
2 *647:X 0.000458914
3 sine_out[0] *623:A 0
4 sine_out[0] *244:6 0
5 sine_out[0] *244:12 0.000184311
6 sine_out[0] *247:8 0.000209083
*RES
1 *647:X sine_out[0] 45.5877 
*END

*D_NET *8 0.00348081
*CONN
*P sine_out[10] O
*I *648:X O *D sg13g2_buf_1
*CAP
1 sine_out[10] 0.000580052
2 *648:X 0.000857065
3 *8:10 0.00143712
4 sine_out[10] sine_out[15] 0
5 sine_out[10] sine_out[22] 0
6 sine_out[10] sine_out[7] 0.00017757
7 sine_out[10] *34:14 0
8 *8:10 sine_out[9] 0
9 *8:10 *422:A 4.77083e-05
10 *8:10 *550:B 0
11 *8:10 *34:8 0
12 *8:10 *158:33 7.52359e-05
13 *8:10 *181:31 0.000180885
14 *8:10 *186:12 0
15 *8:10 *204:16 0
16 *8:10 *228:18 0
17 *8:10 *232:25 0.000125175
18 *8:10 *236:89 0
19 *8:10 *241:35 0
20 *8:10 *241:50 0
*RES
1 *648:X *8:10 48.5799 
2 *8:10 sine_out[10] 46.1079 
*END

*D_NET *9 0.00407721
*CONN
*P sine_out[11] O
*I *649:X O *D sg13g2_buf_1
*CAP
1 sine_out[11] 0.00108139
2 *649:X 0.000152754
3 *9:10 0.00123414
4 sine_out[11] sine_out[25] 0
5 sine_out[11] sine_out[3] 0
6 sine_out[11] *552:B 0
7 sine_out[11] *13:12 0
8 sine_out[11] *66:10 0.001015
9 sine_out[11] *66:16 0.000345866
10 sine_out[11] *163:10 0
11 sine_out[11] *163:16 0
12 sine_out[11] *163:26 0.000232652
13 sine_out[11] *228:10 0
14 *9:10 *649:A 1.54008e-05
15 *9:10 *233:16 0
*RES
1 *649:X *9:10 41.3184 
2 *9:10 sine_out[11] 10.8253 
*END

*D_NET *10 0.00118958
*CONN
*P sine_out[12] O
*I *650:X O *D sg13g2_buf_1
*CAP
1 sine_out[12] 0.000477013
2 *650:X 0.000477013
3 sine_out[12] sine_out[18] 0
4 sine_out[12] sine_out[2] 0
5 sine_out[12] *489:B 0
6 sine_out[12] *43:10 0.000235556
*RES
1 *650:X sine_out[12] 44.4702 
*END

*D_NET *11 0.000988766
*CONN
*P sine_out[13] O
*I *651:X O *D sg13g2_buf_1
*CAP
1 sine_out[13] 0.000470512
2 *651:X 0.000470512
3 sine_out[13] sine_out[2] 4.77425e-05
4 sine_out[13] sine_out[6] 0
*RES
1 *651:X sine_out[13] 44.7689 
*END

*D_NET *12 0.00347015
*CONN
*P sine_out[14] O
*I *652:X O *D sg13g2_buf_1
*CAP
1 sine_out[14] 0.000837771
2 *652:X 0.000316385
3 *12:8 0.00115416
4 sine_out[14] sine_out[17] 0
5 sine_out[14] sine_out[4] 0
6 sine_out[14] *163:16 0
7 sine_out[14] *188:8 7.30101e-05
8 sine_out[14] *188:14 0.000604907
9 sine_out[14] *255:8 0
10 *12:8 *620:A 0.00043601
11 *12:8 *641:A 4.79124e-05
12 *12:8 *644:A 0
*RES
1 *652:X *12:8 43.1312 
2 *12:8 sine_out[14] 48.3636 
*END

*D_NET *13 0.00447427
*CONN
*P sine_out[15] O
*I *618:X O *D sg13g2_buf_1
*CAP
1 sine_out[15] 0.000748386
2 *618:X 0.000362383
3 *13:12 0.00111077
4 sine_out[15] sine_out[3] 0
5 sine_out[15] *552:B 0.000661443
6 sine_out[15] *15:16 0
7 sine_out[15] *37:12 0
8 sine_out[15] *66:54 0.000343781
9 sine_out[15] *163:26 0
10 sine_out[15] *163:32 0
11 sine_out[15] *175:48 0.000161122
12 *13:12 *462:B1 0
13 *13:12 *228:10 0.000334351
14 *13:12 *233:16 4.75425e-05
15 *13:12 *236:35 4.75425e-05
16 *13:12 *238:8 0.000656952
17 sine_out[10] sine_out[15] 0
18 sine_out[11] *13:12 0
*RES
1 *618:X *13:12 44.6968 
2 *13:12 sine_out[15] 7.6117 
*END

*D_NET *14 0.00431684
*CONN
*P sine_out[16] O
*I *619:X O *D sg13g2_buf_1
*CAP
1 sine_out[16] 0.000350119
2 *619:X 0.000870536
3 *14:12 0.00122065
4 sine_out[16] sine_out[24] 0
5 sine_out[16] sine_out[25] 0
6 *14:12 sine_out[24] 0.000274134
7 *14:12 sine_out[25] 0
8 *14:12 *644:A 0
9 *14:12 *15:16 0
10 *14:12 *21:24 0.000371965
11 *14:12 *34:14 0.0011492
12 *14:12 *37:12 8.02267e-05
*RES
1 *619:X *14:12 30.4236 
2 *14:12 sine_out[16] 22.6677 
*END

*D_NET *15 0.00437604
*CONN
*P sine_out[17] O
*I *620:X O *D sg13g2_buf_1
*CAP
1 sine_out[17] 0.000685555
2 *620:X 0.000418509
3 *15:16 0.00110406
4 sine_out[17] sine_out[5] 0
5 sine_out[17] sine_out[7] 0.000727494
6 sine_out[17] *34:14 0.000598012
7 *15:16 sine_out[24] 0
8 *15:16 sine_out[9] 0
9 *15:16 *620:A 0
10 *15:16 *644:A 0.000177442
11 *15:16 *21:24 0.000274737
12 *15:16 *24:14 0.00020911
13 *15:16 *37:12 0.000181116
14 sine_out[14] sine_out[17] 0
15 sine_out[15] *15:16 0
16 *14:12 *15:16 0
*RES
1 *620:X *15:16 44.8101 
2 *15:16 sine_out[17] 47.0349 
*END

*D_NET *16 0.000721903
*CONN
*P sine_out[18] O
*I *621:X O *D sg13g2_buf_1
*CAP
1 sine_out[18] 0.000360951
2 *621:X 0.000360951
3 sine_out[12] sine_out[18] 0
*RES
1 *621:X sine_out[18] 43.4814 
*END

*D_NET *17 0.000883034
*CONN
*P sine_out[19] O
*I *622:X O *D sg13g2_buf_1
*CAP
1 sine_out[19] 0.000352796
2 *622:X 0.000352796
3 sine_out[19] *244:6 0.000177442
*RES
1 *622:X sine_out[19] 44.3826 
*END

*D_NET *18 0.000754933
*CONN
*P sine_out[1] O
*I *623:X O *D sg13g2_buf_1
*CAP
1 sine_out[1] 0.000321203
2 *623:X 0.000321203
3 sine_out[1] *244:6 0.000112528
*RES
1 *623:X sine_out[1] 43.9501 
*END

*D_NET *19 0.00277715
*CONN
*P sine_out[20] O
*I *624:X O *D sg13g2_buf_1
*CAP
1 sine_out[20] 0.000428806
2 *624:X 0.000709205
3 *19:10 0.00113801
4 sine_out[20] sine_out[21] 0
5 sine_out[20] sine_out[29] 0
6 *19:10 *20:14 0
7 *19:10 *28:10 0
8 *19:10 *30:10 0.000501131
9 *19:10 *32:10 0
*RES
1 *624:X *19:10 46.9517 
2 *19:10 sine_out[20] 24.0582 
*END

*D_NET *20 0.0025447
*CONN
*P sine_out[21] O
*I *625:X O *D sg13g2_buf_1
*CAP
1 sine_out[21] 0.000663376
2 *625:X 0.000608972
3 *20:14 0.00127235
4 sine_out[21] *31:10 0
5 sine_out[21] *32:10 0
6 *20:14 *28:10 0
7 *20:14 *233:36 0
8 sine_out[20] sine_out[21] 0
9 *19:10 *20:14 0
*RES
1 *625:X *20:14 47.0555 
2 *20:14 sine_out[21] 26.6538 
*END

*D_NET *21 0.00274633
*CONN
*P sine_out[22] O
*I *626:X O *D sg13g2_buf_1
*CAP
1 sine_out[22] 0.000156475
2 *626:X 0.000823382
3 *21:24 0.000979857
4 sine_out[22] sine_out[9] 0
5 sine_out[22] *37:12 2.21839e-05
6 *21:24 sine_out[9] 0
7 *21:24 *626:A 8.01575e-05
8 *21:24 *630:A 0
9 *21:24 *641:A 0
10 *21:24 *24:14 3.75762e-05
11 *21:24 *37:12 0
12 sine_out[10] sine_out[22] 0
13 *14:12 *21:24 0.000371965
14 *15:16 *21:24 0.000274737
*RES
1 *626:X *21:24 49.2082 
2 *21:24 sine_out[22] 1.9261 
*END

*D_NET *22 0.000575867
*CONN
*P sine_out[23] O
*I *627:X O *D sg13g2_buf_1
*CAP
1 sine_out[23] 0.000287933
2 *627:X 0.000287933
3 *3:11 sine_out[23] 0
*RES
1 *627:X sine_out[23] 43.5174 
*END

*D_NET *23 0.00172004
*CONN
*P sine_out[24] O
*I *629:X O *D sg13g2_buf_1
*CAP
1 sine_out[24] 0.000618113
2 *629:X 0.000618113
3 sine_out[24] sine_out[4] 0
4 sine_out[24] *163:16 6.48861e-05
5 sine_out[24] *163:26 0.000144795
6 sine_out[16] sine_out[24] 0
7 *14:12 sine_out[24] 0.000274134
8 *15:16 sine_out[24] 0
*RES
1 *629:X sine_out[24] 45.5311 
*END

*D_NET *24 0.00318867
*CONN
*P sine_out[25] O
*I *630:X O *D sg13g2_buf_1
*CAP
1 sine_out[25] 0.000669557
2 *630:X 0.000560964
3 *24:14 0.00123052
4 sine_out[25] *552:B 0.000176369
5 sine_out[25] *644:A 1.54556e-05
6 sine_out[25] *163:26 0.0001122
7 *24:14 *620:A 0
8 *24:14 *641:A 0.000176921
9 sine_out[11] sine_out[25] 0
10 sine_out[16] sine_out[25] 0
11 *14:12 sine_out[25] 0
12 *15:16 *24:14 0.00020911
13 *21:24 *24:14 3.75762e-05
*RES
1 *630:X *24:14 46.1285 
2 *24:14 sine_out[25] 45.6753 
*END

*D_NET *25 0.00138715
*CONN
*P sine_out[26] O
*I *631:X O *D sg13g2_buf_1
*CAP
1 sine_out[26] 0.000693573
2 *631:X 0.000693573
3 sine_out[26] *512:A 0
*RES
1 *631:X sine_out[26] 28.6211 
*END

*D_NET *26 0.00499198
*CONN
*P sine_out[27] O
*I *632:X O *D sg13g2_buf_1
*CAP
1 sine_out[27] 0.000895147
2 *632:X 0.000309605
3 *26:8 0.00120475
4 sine_out[27] *486:B 0
5 *26:8 *231:71 0.000555824
6 *26:8 *237:10 0.000665178
7 sign sine_out[27] 0
8 signB sine_out[27] 0
9 *6:10 *26:8 0.00136148
*RES
1 *632:X *26:8 46.7774 
2 *26:8 sine_out[27] 28.9198 
*END

*D_NET *27 0.00199171
*CONN
*P sine_out[28] O
*I *633:X O *D sg13g2_buf_1
*CAP
1 sine_out[28] 0.000404353
2 *633:X 0.000447002
3 *27:10 0.000851355
4 sine_out[28] sine_out[8] 0
5 *27:10 *38:10 0.000289003
*RES
1 *633:X *27:10 45.5517 
2 *27:10 sine_out[28] 24.0582 
*END

*D_NET *28 0.00311367
*CONN
*P sine_out[29] O
*I *634:X O *D sg13g2_buf_1
*CAP
1 sine_out[29] 0.000476913
2 *634:X 0.00064448
3 *28:10 0.00112139
4 sine_out[29] sine_out[30] 0
5 sine_out[29] *31:10 0.000209912
6 *28:10 *30:10 0.000660972
7 sine_out[20] sine_out[29] 0
8 *19:10 *28:10 0
9 *20:14 *28:10 0
*RES
1 *634:X *28:10 47.8383 
2 *28:10 sine_out[29] 24.944 
*END

*D_NET *29 0.00159272
*CONN
*P sine_out[2] O
*I *635:X O *D sg13g2_buf_1
*CAP
1 sine_out[2] 0.000667461
2 *635:X 0.000667461
3 sine_out[2] *642:A 0
4 sine_out[2] *43:10 0.000210054
5 sine_out[2] *57:10 0
6 sine_out[12] sine_out[2] 0
7 sine_out[13] sine_out[2] 4.77425e-05
*RES
1 *635:X sine_out[2] 47.4778 
*END

*D_NET *30 0.00330884
*CONN
*P sine_out[30] O
*I *636:X O *D sg13g2_buf_1
*CAP
1 sine_out[30] 0.000490991
2 *636:X 0.000582378
3 *30:10 0.00107337
4 sine_out[30] sine_out[32] 0
5 sine_out[30] sine_out[8] 0
6 sine_out[30] *31:10 0
7 *30:10 *32:10 0
8 sine_out[29] sine_out[30] 0
9 *19:10 *30:10 0.000501131
10 *28:10 *30:10 0.000660972
*RES
1 *636:X *30:10 44.5778 
2 *30:10 sine_out[30] 24.2745 
*END

*D_NET *31 0.00238411
*CONN
*P sine_out[31] O
*I *637:X O *D sg13g2_buf_1
*CAP
1 sine_out[31] 0.000322984
2 *637:X 0.000646793
3 *31:10 0.000969777
4 sine_out[31] sine_out[32] 0
5 sine_out[31] sine_out[8] 0
6 *31:10 *32:10 0.00023464
7 sine_out[21] *31:10 0
8 sine_out[29] *31:10 0.000209912
9 sine_out[30] *31:10 0
*RES
1 *637:X *31:10 47.6529 
2 *31:10 sine_out[31] 23.193 
*END

*D_NET *32 0.00239825
*CONN
*P sine_out[32] O
*I *638:X O *D sg13g2_buf_1
*CAP
1 sine_out[32] 0.000298517
2 *638:X 0.000783287
3 *32:10 0.0010818
4 sine_out[21] *32:10 0
5 sine_out[30] sine_out[32] 0
6 sine_out[31] sine_out[32] 0
7 *19:10 *32:10 0
8 *30:10 *32:10 0
9 *31:10 *32:10 0.00023464
*RES
1 *638:X *32:10 48.6108 
2 *32:10 sine_out[32] 22.9767 
*END

*D_NET *33 0.00470724
*CONN
*P sine_out[3] O
*I *640:X O *D sg13g2_buf_1
*CAP
1 sine_out[3] 0.00039259
2 *640:X 0
3 *33:16 0.00235362
4 *33:10 0.00196103
5 *33:6 0
6 *33:16 *208:14 0
7 sine_out[11] sine_out[3] 0
8 sine_out[15] sine_out[3] 0
*RES
1 *640:X *33:6 40 
2 *33:6 *33:10 40 
3 *33:10 *33:16 41.5579 
4 *33:16 sine_out[3] 22.9149 
*END

*D_NET *34 0.00405496
*CONN
*P sine_out[4] O
*I *641:X O *D sg13g2_buf_1
*CAP
1 sine_out[4] 0.000316005
2 *641:X 9.65338e-05
3 *34:14 0.00105734
4 *34:8 0.000837867
5 sine_out[10] *34:14 0
6 sine_out[14] sine_out[4] 0
7 sine_out[17] *34:14 0.000598012
8 sine_out[24] sine_out[4] 0
9 *8:10 *34:8 0
10 *14:12 *34:14 0.0011492
*RES
1 *641:X *34:8 40.8446 
2 *34:8 *34:14 48.5387 
3 *34:14 sine_out[4] 2.4205 
*END

*D_NET *35 0.00146796
*CONN
*P sine_out[5] O
*I *642:X O *D sg13g2_buf_1
*CAP
1 sine_out[5] 0.000525127
2 *642:X 0.000525127
3 sine_out[5] sine_out[6] 0.0001447
4 sine_out[5] sine_out[7] 0
5 sine_out[5] *642:A 0.000144843
6 sine_out[5] *255:8 0.00012816
7 sine_out[17] sine_out[5] 0
*RES
1 *642:X sine_out[5] 45.1191 
*END

*D_NET *36 0.00158924
*CONN
*P sine_out[6] O
*I *643:X O *D sg13g2_buf_1
*CAP
1 sine_out[6] 0.000698383
2 *643:X 0.000698383
3 sine_out[6] sine_out[7] 0
4 sine_out[6] *642:A 0
5 sine_out[6] *651:A 4.77699e-05
6 sine_out[6] *203:12 0
7 sine_out[13] sine_out[6] 0
8 sine_out[5] sine_out[6] 0.0001447
*RES
1 *643:X sine_out[6] 46.3036 
*END

*D_NET *37 0.00315696
*CONN
*P sine_out[7] O
*I *644:X O *D sg13g2_buf_1
*CAP
1 sine_out[7] 0.000805914
2 *644:X 0.00017827
3 *37:12 0.000984184
4 sine_out[10] sine_out[7] 0.00017757
5 sine_out[15] *37:12 0
6 sine_out[17] sine_out[7] 0.000727494
7 sine_out[22] *37:12 2.21839e-05
8 sine_out[5] sine_out[7] 0
9 sine_out[6] sine_out[7] 0
10 *14:12 *37:12 8.02267e-05
11 *15:16 *37:12 0.000181116
12 *21:24 *37:12 0
*RES
1 *644:X *37:12 41.9776 
2 *37:12 sine_out[7] 47.8692 
*END

*D_NET *38 0.00236889
*CONN
*P sine_out[8] O
*I *645:X O *D sg13g2_buf_1
*CAP
1 sine_out[8] 0.000445366
2 *645:X 0.000594579
3 *38:10 0.00103994
4 sine_out[28] sine_out[8] 0
5 sine_out[30] sine_out[8] 0
6 sine_out[31] sine_out[8] 0
7 *27:10 *38:10 0.000289003
*RES
1 *645:X *38:10 47.2512 
2 *38:10 sine_out[8] 23.8419 
*END

*D_NET *39 0.0029337
*CONN
*P sine_out[9] O
*I *646:X O *D sg13g2_buf_1
*CAP
1 sine_out[9] 0.000768834
2 *646:X 0.000413754
3 *39:10 0.00118259
4 sine_out[9] *158:8 0
5 sine_out[9] *236:79 0
6 sine_out[9] *256:16 0
7 *39:10 *158:8 0
8 *39:10 *173:18 0
9 *39:10 *175:10 0.000232876
10 *39:10 *214:12 0.000335644
11 *39:10 *256:16 0
12 sine_out[22] sine_out[9] 0
13 *8:10 sine_out[9] 0
14 *15:16 sine_out[9] 0
15 *21:24 sine_out[9] 0
*RES
1 *646:X *39:10 43.8213 
2 *39:10 sine_out[9] 8.2194 
*END

*D_NET *40 0.000690843
*CONN
*I *576:D I *D sg13g2_dfrbpq_1
*I *494:Y O *D sg13g2_inv_1
*CAP
1 *576:D 0
2 *494:Y 0.000307857
3 *40:8 0.000307857
4 *40:8 *569:CLK 0
5 *40:8 *183:12 0
6 *40:8 *183:54 7.51285e-05
7 *40:8 *207:10 0
*RES
1 *494:Y *40:8 43.0694 
2 *40:8 *576:D 40 
*END

*D_NET *41 0.000499152
*CONN
*I *609:A I *D sg13g2_dlygate4sd3_1
*I *489:Y O *D sg13g2_xnor2_1
*CAP
1 *609:A 0
2 *489:Y 0.000249576
3 *41:12 0.000249576
4 *41:12 *489:B 0
5 *41:12 *215:8 0
*RES
1 *489:Y *41:12 42.7501 
2 *41:12 *609:A 40 
*END

*D_NET *42 0.000512051
*CONN
*I *613:A I *D sg13g2_dlygate4sd3_1
*I *576:Q O *D sg13g2_dfrbpq_1
*CAP
1 *613:A 0.000151205
2 *576:Q 0.000151205
3 *613:A *92:12 0.000209641
4 *613:A *237:24 0
*RES
1 *576:Q *613:A 41.751 
*END

*D_NET *43 0.00178391
*CONN
*I *610:A I *D sg13g2_dlygate4sd3_1
*I *568:Q O *D sg13g2_dfrbpq_1
*CAP
1 *610:A 0
2 *568:Q 0.000274332
3 *43:10 0.000274332
4 *43:10 *489:B 0
5 *43:10 *650:A 0
6 *43:10 *57:10 0
7 *43:10 *189:18 0.000501547
8 *43:10 *249:8 0.000288088
9 *43:10 *254:44 0
10 sine_out[12] *43:10 0.000235556
11 sine_out[2] *43:10 0.000210054
*RES
1 *568:Q *43:10 44.4393 
2 *43:10 *610:A 40 
*END

*D_NET *44 0.000600165
*CONN
*I *611:A I *D sg13g2_dlygate4sd3_1
*I *569:Q O *D sg13g2_dfrbpq_1
*CAP
1 *611:A 0.000195598
2 *569:Q 0.000195598
3 *611:A *492:A 0
4 *611:A *237:36 0.000208968
*RES
1 *569:Q *611:A 41.9982 
*END

*D_NET *45 0.000369179
*CONN
*I *569:D I *D sg13g2_dfrbpq_1
*I *467:Y O *D sg13g2_xnor2_1
*CAP
1 *569:D 0.000176875
2 *467:Y 0.000176875
3 *569:D *568:CLK 0
4 *569:D *569:RESET_B 0
5 *569:D *603:A 0
6 *569:D *253:89 1.54285e-05
*RES
1 *467:Y *569:D 41.7819 
*END

*D_NET *46 0.00253281
*CONN
*I *606:A I *D sg13g2_dlygate4sd3_1
*I *598:A I *D sg13g2_buf_8
*I *570:Q O *D sg13g2_dfrbpq_2
*CAP
1 *606:A 0
2 *598:A 0.000224558
3 *570:Q 0.000384848
4 *46:23 0.000215415
5 *46:8 0.00082482
6 *598:A *240:64 0.000274812
7 *598:A *244:6 0
8 *598:A *248:10 0
9 *46:8 *627:A 0
10 *46:8 *48:10 0
11 *46:8 *190:12 0
12 *46:8 *235:6 0
13 *46:8 *240:64 0
14 *46:8 *244:6 0
15 *46:23 *597:A 0
16 *46:23 *190:12 0
17 *46:23 *240:64 0
18 *46:23 *248:10 0.000608354
*RES
1 *570:Q *46:8 23.3334 
2 *46:8 *598:A 22.4823 
3 *46:8 *46:23 43.1415 
4 *46:23 *606:A 20 
*END

*D_NET *47 0.000588051
*CONN
*I *570:D I *D sg13g2_dfrbpq_2
*I *471:X O *D sg13g2_xor2_1
*CAP
1 *570:D 0
2 *471:X 0.000294025
3 *47:10 0.000294025
4 *47:10 *164:57 0
5 *47:10 *235:14 0
6 *47:10 *235:104 0
*RES
1 *471:X *47:10 43.6359 
2 *47:10 *570:D 40 
*END

*D_NET *48 0.00306626
*CONN
*I *607:A I *D sg13g2_dlygate4sd3_1
*I *597:A I *D sg13g2_buf_1
*I *571:Q O *D sg13g2_dfrbpq_1
*CAP
1 *607:A 0.000160325
2 *597:A 0.000375269
3 *571:Q 0.000331061
4 *48:10 0.000866655
5 *597:A *495:B 0
6 *597:A *190:12 0.000449344
7 *597:A *195:10 0
8 *597:A *240:31 0
9 *597:A *240:64 0
10 *597:A *245:10 0
11 *607:A *190:12 0.000480193
12 *607:A *195:10 0
13 *48:10 *570:CLK 0
14 *48:10 *235:6 0.000403411
15 *46:8 *48:10 0
16 *46:23 *597:A 0
*RES
1 *571:Q *48:10 43.6668 
2 *48:10 *597:A 44.1303 
3 *48:10 *607:A 42.3278 
*END

*D_NET *49 0.000212169
*CONN
*I *571:D I *D sg13g2_dfrbpq_1
*I *475:X O *D sg13g2_xor2_1
*CAP
1 *571:D 0.000106084
2 *475:X 0.000106084
3 *571:D *478:B1 0
4 *571:D *254:100 0
*RES
1 *475:X *571:D 41.339 
*END

*D_NET *50 0.00267995
*CONN
*I *608:A I *D sg13g2_dlygate4sd3_1
*I *595:A I *D sg13g2_buf_8
*I *426:B I *D sg13g2_nand2_2
*I *572:Q O *D sg13g2_dfrbpq_2
*CAP
1 *608:A 6.68694e-05
2 *595:A 0
3 *426:B 0
4 *572:Q 0
5 *50:16 0.000827659
6 *50:6 0.00124146
7 *50:4 0.000480675
8 *50:6 *593:A 0
9 *50:6 *235:6 0
10 *50:16 *426:A 4.78853e-05
11 *50:16 *570:RESET_B 1.54008e-05
12 *50:16 *195:10 0
13 *50:16 *235:6 0
14 *50:16 *235:14 0
15 *50:16 *240:31 0
16 *50:16 *244:6 0
17 *50:16 *254:100 0
18 *3:11 *50:6 0
19 *3:11 *50:16 0
*RES
1 *572:Q *50:4 20 
2 *50:4 *50:6 3.9964 
3 *50:6 *50:16 48.652 
4 *50:16 *426:B 20 
5 *50:6 *595:A 20 
6 *50:4 *608:A 20.8446 
*END

*D_NET *51 0.00114581
*CONN
*I *572:D I *D sg13g2_dfrbpq_2
*I *479:X O *D sg13g2_xor2_1
*CAP
1 *572:D 0.000234598
2 *479:X 0.000276817
3 *51:8 0.000511414
4 *572:D *604:A 4.77699e-05
5 *572:D *184:32 0
6 *572:D *254:94 0
7 *572:D *254:100 0
8 *51:8 *89:12 7.52149e-05
*RES
1 *479:X *51:8 43.3166 
2 *51:8 *572:D 42.4823 
*END

*D_NET *52 0.00162769
*CONN
*I *615:A I *D sg13g2_dlygate4sd3_1
*I *588:A I *D sg13g2_buf_8
*I *573:Q O *D sg13g2_dfrbpq_2
*CAP
1 *615:A 0
2 *588:A 0.000335568
3 *573:Q 0.000138852
4 *52:10 0.00047442
5 *588:A *183:54 0
6 *588:A *236:12 8.01392e-05
7 *588:A *237:24 0.00059871
*RES
1 *573:Q *52:10 21.7613 
2 *52:10 *588:A 23.9964 
3 *52:10 *615:A 20 
*END

*D_NET *53 0.00323466
*CONN
*I *573:D I *D sg13g2_dfrbpq_2
*I *483:X O *D sg13g2_xor2_1
*CAP
1 *573:D 0.0006606
2 *483:X 0.000269985
3 *53:10 0.000930584
4 *573:D *484:B1 0.000660271
5 *573:D *486:A 0.000713217
6 *573:D *564:A 0
7 *573:D *65:8 0
8 *573:D *183:54 0
9 *573:D *207:10 0
10 *53:10 *237:24 0
*RES
1 *483:X *53:10 42.6162 
2 *53:10 *573:D 49.3215 
*END

*D_NET *54 0.000184298
*CONN
*I *587:A I *D sg13g2_buf_8
*I *574:Q O *D sg13g2_dfrbpq_1
*CAP
1 *587:A 9.21492e-05
2 *574:Q 9.21492e-05
3 *587:A *574:CLK 0
*RES
1 *574:Q *587:A 41.1639 
*END

*D_NET *55 0.000757451
*CONN
*I *616:A I *D sg13g2_dlygate4sd3_1
*I *486:Y O *D sg13g2_xnor2_1
*CAP
1 *616:A 0.000257619
2 *486:Y 0.000257619
3 *616:A *486:B 0
4 *616:A *628:A 0
5 *616:A *94:8 0.000242213
*RES
1 *486:Y *616:A 42.9973 
*END

*D_NET *56 0.00822991
*CONN
*I *438:A1 I *D sg13g2_o21ai_1
*I *468:A1 I *D sg13g2_o21ai_1
*I *568:D I *D sg13g2_dfrbpq_1
*I *409:A I *D sg13g2_nor2_1
*I *413:A I *D sg13g2_nor2_1
*I *403:Y O *D sg13g2_inv_2
*CAP
1 *438:A1 0.000146301
2 *468:A1 0.000412278
3 *568:D 0.000175813
4 *409:A 0
5 *413:A 0.000482573
6 *403:Y 0
7 *56:38 0.000758057
8 *56:27 0.000584781
9 *56:21 0.000740256
10 *56:6 0.000661713
11 *413:A *420:B 0.000183882
12 *413:A *643:A 4.77699e-05
13 *413:A *66:10 0
14 *413:A *158:72 0.000399906
15 *413:A *163:10 0.000237686
16 *413:A *165:16 0
17 *413:A *253:10 0
18 *438:A1 *438:A2 0.000122627
19 *438:A1 *170:12 1.54008e-05
20 *438:A1 *253:21 0.000288852
21 *468:A1 *451:B1 0.000444699
22 *468:A1 *468:A2 0
23 *468:A1 *98:8 0.000493211
24 *468:A1 *234:22 0.000260645
25 *468:A1 *237:48 0
26 *468:A1 *245:18 0
27 *468:A1 *245:73 0
28 *568:D *157:22 0
29 *568:D *164:24 0.000356917
30 *568:D *237:58 0
31 *568:D *242:37 0
32 *568:D *242:41 0.000126354
33 *568:D *242:43 0.000289079
34 *56:21 *420:B 0
35 *56:21 *170:12 0
36 *56:21 *237:58 0.000130055
37 *56:21 *253:10 7.49633e-05
38 *56:21 *253:21 0.000427965
39 *56:27 *409:B 0
40 *56:27 *159:24 0
41 *56:27 *234:44 0
42 *56:27 *236:31 7.99388e-05
43 *56:27 *236:33 0.000208102
44 *56:27 *237:58 0
45 *56:27 *247:68 0
46 *56:38 *432:A2 0
47 *56:38 *488:C 0
48 *56:38 *237:58 8.00842e-05
*RES
1 *403:Y *56:6 40 
2 *56:6 *413:A 45.4384 
3 *56:6 *56:21 2.3278 
4 *56:21 *56:27 23.914 
5 *56:27 *409:A 20 
6 *56:27 *56:38 21.7201 
7 *56:38 *568:D 42.575 
8 *56:38 *468:A1 45.3663 
9 *56:21 *438:A1 41.8746 
*END

*D_NET *57 0.00133304
*CONN
*I *568:RESET_B I *D sg13g2_dfrbpq_1
*I *404:Y O *D sg13g2_inv_1
*CAP
1 *568:RESET_B 0
2 *404:Y 0.000362092
3 *57:10 0.000362092