*SPEF "ieee 1481-1999"
*DESIGN "DigitalSine"
*DATE "12:31:37 Sunday December 14, 2025"
*VENDOR "The OpenROAD Project"
*PROGRAM "OpenROAD"
*VERSION "341650e72dad0dc8571822ff8c5d9c5e365327f7"
*DESIGN_FLOW "NAME_SCOPE LOCAL" "PIN_CAP NONE"
*DIVIDER /
*DELIMITER :
*BUS_DELIMITER []
*T_UNIT 1 NS
*C_UNIT 1 PF
*R_UNIT 1 OHM
*L_UNIT 1 HENRY

*NAME_MAP
*3 clk
*4 rst
*5 sign
*6 signB
*7 sine_out[0]
*8 sine_out[10]
*9 sine_out[11]
*10 sine_out[12]
*11 sine_out[13]
*12 sine_out[14]
*13 sine_out[15]
*14 sine_out[16]
*15 sine_out[17]
*16 sine_out[18]
*17 sine_out[19]
*18 sine_out[1]
*19 sine_out[20]
*20 sine_out[21]
*21 sine_out[22]
*22 sine_out[23]
*23 sine_out[24]
*24 sine_out[25]
*25 sine_out[26]
*26 sine_out[27]
*27 sine_out[28]
*28 sine_out[29]
*29 sine_out[2]
*30 sine_out[30]
*31 sine_out[31]
*32 sine_out[32]
*33 sine_out[3]
*34 sine_out[4]
*35 sine_out[5]
*36 sine_out[6]
*37 sine_out[7]
*38 sine_out[8]
*39 sine_out[9]
*40 CTRL\.P0
*41 CTRL\.P1
*42 CTRL\.S0
*43 DPATH\.SUM\.Cout0
*44 DPATH\.SUM\.fa_1\.A
*45 DPATH\.SUM\.fa_1\.S
*46 DPATH\.SUM\.fa_2\.A
*47 DPATH\.SUM\.fa_2\.S
*48 DPATH\.SUM\.fa_3\.A
*49 DPATH\.SUM\.fa_3\.S
*50 DPATH\.SUM\.fa_4\.A
*51 DPATH\.SUM\.fa_4\.S
*52 DPATH\.SUM\.fa_5\.A
*53 DPATH\.SUM\.fa_5\.S
*54 DPATH\.SUM\.fa_6\.A
*55 DPATH\.SUM\.fa_6\.S
*56 DPATH\.SUM\.ha_0\.S
*57 _000_
*58 _001_
*59 _002_
*60 _003_
*61 _004_
*62 _005_
*63 _006_
*64 _007_
*65 _008_
*66 _009_
*67 _010_
*68 _011_
*69 _012_
*70 _013_
*71 _014_
*72 _015_
*73 _016_
*74 _017_
*75 _018_
*76 _019_
*77 _020_
*78 _021_
*79 _022_
*80 _023_
*81 _024_
*82 _025_
*83 _026_
*84 _027_
*85 _028_
*86 _029_
*87 _030_
*88 _031_
*89 _032_
*90 _033_
*91 _034_
*92 _035_
*93 _036_
*94 _037_
*95 _038_
*96 _039_
*97 _040_
*98 _041_
*99 _042_
*100 _043_
*101 _044_
*102 _045_
*103 _046_
*104 _047_
*105 _048_
*106 _049_
*107 _050_
*108 _051_
*109 _052_
*110 _053_
*111 _054_
*112 _055_
*113 _056_
*114 _057_
*115 _058_
*116 _059_
*117 _060_
*118 _061_
*119 _062_
*120 _063_
*121 _064_
*122 _065_
*123 _066_
*124 _067_
*125 _068_
*126 _069_
*127 _070_
*128 _071_
*129 _072_
*130 _073_
*131 _074_
*132 _075_
*133 _076_
*134 _077_
*135 _078_
*136 _079_
*137 _080_
*138 _081_
*139 _082_
*140 _083_
*141 _084_
*142 _085_
*143 _086_
*144 _087_
*145 _088_
*146 _089_
*147 _090_
*148 _091_
*149 _092_
*150 _093_
*151 _094_
*152 _095_
*153 _096_
*154 _097_
*155 _098_
*156 _099_
*157 _100_
*158 _101_
*159 _102_
*160 _103_
*161 _104_
*162 _105_
*163 _106_
*164 _107_
*165 _108_
*166 _109_
*167 _110_
*168 _111_
*169 _112_
*170 _113_
*171 _114_
*172 _115_
*173 _116_
*174 _117_
*175 _118_
*176 _119_
*177 _120_
*178 _121_
*179 _122_
*180 _123_
*181 _124_
*182 clknet_0_clk
*183 clknet_1_0__leaf_clk
*184 clknet_1_1__leaf_clk
*185 net1
*186 net10
*187 net11
*188 net12
*189 net13
*190 net14
*191 net15
*192 net16
*193 net17
*194 net18
*195 net19
*196 net2
*197 net20
*198 net21
*199 net22
*200 net23
*201 net24
*202 net25
*203 net26
*204 net27
*205 net28
*206 net29
*207 net3
*208 net30
*209 net31
*210 net32
*211 net33
*212 net34
*213 net35
*214 net36
*215 net37
*216 net38
*217 net39
*218 net4
*219 net5
*220 net52
*221 net53
*222 net54
*223 net55
*224 net56
*225 net57
*226 net58
*227 net59
*228 net6
*229 net60
*230 net61
*231 net62
*232 net63
*233 net64
*234 net65
*235 net66
*236 net67
*237 net68
*238 net69
*239 net7
*240 net70
*241 net71
*242 net72
*243 net73
*244 net74
*245 net75
*246 net76
*247 net8
*248 net9
*249 FILLER_0_112
*250 FILLER_0_71
*251 FILLER_0_90
*252 FILLER_10_105
*253 FILLER_10_66
*254 FILLER_10_68
*255 FILLER_10_88
*256 FILLER_11_23
*257 FILLER_11_51
*258 FILLER_11_53
*259 FILLER_11_62
*260 FILLER_11_71
*261 FILLER_11_91
*262 FILLER_12_14
*263 FILLER_12_26
*264 FILLER_12_33
*265 FILLER_12_63
*266 FILLER_12_65
*267 FILLER_12_76
*268 FILLER_12_83
*269 FILLER_13_0
*270 FILLER_13_114
*271 FILLER_13_116
*272 FILLER_13_81
*273 FILLER_13_83
*274 FILLER_1_103
*275 FILLER_1_116
*276 FILLER_2_63
*277 FILLER_3_0
*278 FILLER_3_84
*279 FILLER_4_0
*280 FILLER_4_20
*281 FILLER_4_74
*282 FILLER_5_0
*283 FILLER_5_29
*284 FILLER_5_47
*285 FILLER_5_66
*286 FILLER_5_81
*287 FILLER_6_0
*288 FILLER_6_53
*289 FILLER_6_87
*290 FILLER_7_115
*291 FILLER_8_0
*292 FILLER_8_101
*293 FILLER_8_115
*294 FILLER_8_18
*295 FILLER_8_28
*296 FILLER_8_52
*297 FILLER_8_67
*298 FILLER_8_78
*299 FILLER_9_106
*300 FILLER_9_24
*301 FILLER_9_5
*302 FILLER_9_62
*303 FILLER_9_64
*304 FILLER_9_88
*305 _125_
*306 _126_
*307 _127_
*308 _128_
*309 _129_
*310 _130_
*311 _131_
*312 _132_
*313 _133_
*314 _134_
*315 _135_
*316 _136_
*317 _137_
*318 _138_
*319 _139_
*320 _140_
*321 _141_
*322 _142_
*323 _143_
*324 _144_
*325 _145_
*326 _146_
*327 _147_
*328 _148_
*329 _149_
*330 _150_
*331 _151_
*332 _152_
*333 _153_
*334 _154_
*335 _155_
*336 _156_
*337 _157_
*338 _158_
*339 _159_
*340 _160_
*341 _161_
*342 _162_
*343 _163_
*344 _164_
*345 _165_
*346 _166_
*347 _167_
*348 _168_
*349 _169_
*350 _170_
*351 _171_
*352 _172_
*353 _173_
*354 _174_
*355 _175_
*356 _176_
*357 _177_
*358 _178_
*359 _179_
*360 _180_
*361 _181_
*362 _182_
*363 _183_
*364 _184_
*365 _185_
*366 _186_
*367 _187_
*368 _188_
*369 _189_
*370 _190_
*371 _191_
*372 _192_
*373 _193_
*374 _194_
*375 _195_
*376 _196_
*377 _197_
*378 _198_
*379 _199_
*380 _200_
*381 _201_
*382 _202_
*383 _203_
*384 _204_
*385 _205_
*386 _206_
*387 _207_
*388 _208_
*389 _209_
*390 _210_
*391 _211_
*392 _212_
*393 _213_
*394 _214_
*395 _215_
*396 _216_
*397 _217_
*398 _218_
*399 _219_
*400 _220_
*401 _221_
*402 _222_
*403 _223_
*404 _224_
*405 _225_
*406 _226_
*407 _227_
*408 _228_
*409 _229_
*410 _230_
*411 _231_
*412 _232_
*413 _233_
*414 _234_
*415 _235_
*416 _236_
*417 _237_
*418 _238_
*419 _239_
*420 _240_
*421 _241_
*422 _242_
*423 _243_
*424 _244_
*425 _245_
*426 _246_
*427 _247_
*428 _248_
*429 _249_
*430 _250_
*431 _251_
*432 _252_
*433 _253_
*434 _254_
*435 _255_
*436 _256_
*437 _257_
*438 _258_
*439 _259_
*440 _260_
*441 _261_
*442 _262_
*443 _263_
*444 _264_
*445 _265_
*446 _266_
*447 _267_
*448 _268_
*449 _269_
*450 _270_
*451 _271_
*452 _272_
*453 _273_
*454 _274_
*455 _275_
*456 _276_
*457 _277_
*458 _278_
*459 _279_
*460 _280_
*461 _281_
*462 _282_
*463 _283_
*464 _284_
*465 _285_
*466 _286_
*467 _287_
*468 _288_
*469 _289_
*470 _290_
*471 _291_
*472 _292_
*473 _293_
*474 _294_
*475 _295_
*476 _296_
*477 _297_
*478 _298_
*479 _299_
*480 _300_
*481 _301_
*482 clkbuf_0_clk
*483 clkbuf_1_0__f_clk
*484 clkbuf_1_1__f_clk
*485 clkload0
*486 fanout37
*487 fanout52
*488 fanout53
*489 fanout54
*490 fanout55
*491 fanout56
*492 fanout57
*493 fanout58
*494 fanout59
*495 fanout60
*496 fanout61
*497 fanout62
*498 fanout63
*499 fanout64
*500 fanout65
*501 fanout66
*502 fanout67
*503 fanout68
*504 fanout69
*505 fanout70
*506 fanout71
*507 fanout72
*508 fanout73
*509 fanout74
*510 fanout75
*511 fanout76
*512 hold1
*513 hold2
*514 input1
*515 output10
*516 output11
*517 output12
*518 output13
*519 output14
*520 output15
*521 output16
*522 output17
*523 output18
*524 output19
*525 output2
*526 output20
*527 output21
*528 output22
*529 output23
*530 output24
*531 output25
*532 output26
*533 output27
*534 output28
*535 output29
*536 output3
*537 output30
*538 output31
*539 output32
*540 output33
*541 output34
*542 output35
*543 output36
*544 output4
*545 output5
*546 output6
*547 output7
*548 output8
*549 output9

*PORTS
clk I
rst I
sign O
signB O
sine_out[0] O
sine_out[10] O
sine_out[11] O
sine_out[12] O
sine_out[13] O
sine_out[14] O
sine_out[15] O
sine_out[16] O
sine_out[17] O
sine_out[18] O
sine_out[19] O
sine_out[1] O
sine_out[20] O
sine_out[21] O
sine_out[22] O
sine_out[23] O
sine_out[24] O
sine_out[25] O
sine_out[26] O
sine_out[27] O
sine_out[28] O
sine_out[29] O
sine_out[2] O
sine_out[30] O
sine_out[31] O
sine_out[32] O
sine_out[3] O
sine_out[4] O
sine_out[5] O
sine_out[6] O
sine_out[7] O
sine_out[8] O
sine_out[9] O

*D_NET *3 0.00778644
*CONN
*P clk I
*I *482:A I *D sg13g2_buf_8
*CAP
1 clk 0.00162705
2 *482:A 0
3 *3:13 0.0013644
4 *3:9 0.00299144
5 *3:9 sine_out[31] 0
6 *3:9 sine_out[32] 0
7 *3:9 *246:96 0
8 *3:13 *379:A 0.000334925
9 *3:13 *383:A2 0
10 *3:13 *77:10 0
11 *3:13 *215:10 0
12 *3:13 *237:8 0.000125707
13 *3:13 *238:18 0.00134292
*RES
1 clk *3:9 38.6585 
2 *3:9 *3:13 34.935 
3 *3:13 *482:A 40 
*END

*D_NET *4 0.00113321
*CONN
*P rst I
*I *514:A I *D sg13g2_buf_1
*CAP
1 rst 0.000526422
2 *514:A 0.000526422
3 *514:A *54:55 8.03692e-05
4 *514:A *185:10 0
5 *514:A *225:72 0
6 *514:A *246:96 0
*RES
1 rst *514:A 45.6496 
*END

*D_NET *5 0.0011372
*CONN
*P sign O
*I *525:X O *D sg13g2_buf_2
*CAP
1 sign 0.00049653
2 *525:X 0.00049653
3 sign *325:B 0.000144142
4 sign *196:18 0
5 sign *240:36 0
*RES
1 *525:X sign 45.0264 
*END

*D_NET *6 0.0026564
*CONN
*P signB O
*I *536:X O *D sg13g2_buf_2
*CAP
1 signB 0.000548898
2 *536:X 0.000587242
3 *6:12 0.00113614
4 signB sine_out[0] 0
5 signB *462:A1 0
6 signB *169:16 0
7 *6:12 *311:B 0.000112359
8 *6:12 *460:A2 0
9 *6:12 *460:B1 4.77702e-05
10 *6:12 *462:A1 0
11 *6:12 *540:A 0
12 *6:12 *66:55 0.000112228
13 *6:12 *165:37 0
14 *6:12 *207:14 0
15 *6:12 *214:10 0.000111759
16 *6:12 *233:57 0
*RES
1 *536:X *6:12 45.2495 
2 *6:12 signB 5.1397 
*END

*D_NET *7 0.0046685
*CONN
*P sine_out[0] O
*I *544:X O *D sg13g2_buf_2
*CAP
1 sine_out[0] 0.00150323
2 *544:X 0.000408537
3 *7:10 0.00191177
4 sine_out[0] sine_out[1] 0
5 sine_out[0] *212:18 0
6 sine_out[0] *214:10 0.000606103
7 *7:10 *319:A2 0.000175693
8 *7:10 *463:B1 4.77425e-05
9 *7:10 *540:A 0
10 *7:10 *544:A 1.54282e-05
11 *7:10 *175:48 0
12 *7:10 *233:44 0
13 *7:10 *233:57 0
14 *7:10 *247:10 0
15 signB sine_out[0] 0
*RES
1 *544:X *7:10 43.914 
2 *7:10 sine_out[0] 37.4534 
*END

*D_NET *8 0.00292506
*CONN
*P sine_out[10] O
*I *545:X O *D sg13g2_buf_2
*CAP
1 sine_out[10] 0.00134999
2 *545:X 0.00134999
3 sine_out[10] sine_out[11] 0
4 sine_out[10] sine_out[9] 0
5 sine_out[10] *545:A 1.54008e-05
6 sine_out[10] *546:A 0
7 sine_out[10] *548:A 0
8 sine_out[10] *9:10 0.000209676
9 sine_out[10] *10:12 0
10 sine_out[10] *220:105 0
*RES
1 *545:X sine_out[10] 29.2022 
*END

*D_NET *9 0.00259653
*CONN
*P sine_out[11] O
*I *546:X O *D sg13g2_buf_2
*CAP
1 sine_out[11] 0.000447164
2 *546:X 0.000709522
3 *9:10 0.00115669
4 sine_out[11] sine_out[12] 0
5 *9:10 *546:A 0
6 *9:10 *10:12 7.34778e-05
7 sine_out[10] sine_out[11] 0
8 sine_out[10] *9:10 0.000209676
*RES
1 *546:X *9:10 46.8495 
2 *9:10 sine_out[11] 25.083 
*END

*D_NET *10 0.00242916
*CONN
*P sine_out[12] O
*I *547:X O *D sg13g2_buf_2
*CAP
1 sine_out[12] 0.00046695
2 *547:X 0.000710892
3 *10:12 0.00117784
4 sine_out[12] sine_out[13] 0
5 *10:12 sine_out[13] 0
6 *10:12 *548:A 0
7 sine_out[10] *10:12 0
8 sine_out[11] sine_out[12] 0
9 *9:10 *10:12 7.34778e-05
*RES
1 *547:X *10:12 46.9834 
2 *10:12 sine_out[12] 20.9566 
*END

*D_NET *11 0.00196786
*CONN
*P sine_out[13] O
*I *548:X O *D sg13g2_buf_2
*CAP
1 sine_out[13] 0.000983932
2 *548:X 0.000983932
3 sine_out[13] sine_out[14] 0
4 sine_out[13] *56:88 0
5 sine_out[12] sine_out[13] 0
6 *10:12 sine_out[13] 0
*RES
1 *548:X sine_out[13] 31.4531 
*END

*D_NET *12 0.00209108
*CONN
*P sine_out[14] O
*I *549:X O *D sg13g2_buf_2
*CAP
1 sine_out[14] 0.00104554
2 *549:X 0.00104554
3 sine_out[14] sine_out[15] 0
4 sine_out[13] sine_out[14] 0
*RES
1 *549:X sine_out[14] 31.0879 
*END

*D_NET *13 0.00208532
*CONN
*P sine_out[15] O
*I *515:X O *D sg13g2_buf_2
*CAP
1 sine_out[15] 0.00104266
2 *515:X 0.00104266
3 sine_out[15] sine_out[16] 0
4 sine_out[14] sine_out[15] 0
*RES
1 *515:X sine_out[15] 31.191 
*END

*D_NET *14 0.00189395
*CONN
*P sine_out[16] O
*I *516:X O *D sg13g2_buf_2
*CAP
1 sine_out[16] 0.000939245
2 *516:X 0.000939245
3 sine_out[16] sine_out[17] 0
4 sine_out[16] *516:A 1.54556e-05
5 sine_out[15] sine_out[16] 0
*RES
1 *516:X sine_out[16] 26.3132 
*END

*D_NET *15 0.00185554
*CONN
*P sine_out[17] O
*I *517:X O *D sg13g2_buf_2
*CAP
1 sine_out[17] 0.00092777
2 *517:X 0.00092777
3 sine_out[17] sine_out[18] 0
4 sine_out[17] *516:A 0
5 sine_out[17] *517:A 0
6 sine_out[16] sine_out[17] 0
*RES
1 *517:X sine_out[17] 30.4905 
*END

*D_NET *16 0.00191099
*CONN
*P sine_out[18] O
*I *518:X O *D sg13g2_buf_2
*CAP
1 sine_out[18] 0.000955496
2 *518:X 0.000955496
3 sine_out[18] sine_out[19] 0
4 sine_out[18] *517:A 0
5 sine_out[18] *518:A 0
6 sine_out[17] sine_out[18] 0
*RES
1 *518:X sine_out[18] 30.8407 
*END

*D_NET *17 0.00194655
*CONN
*P sine_out[19] O
*I *519:X O *D sg13g2_buf_2
*CAP
1 sine_out[19] 0.000965547
2 *519:X 0.000965547
3 sine_out[19] sine_out[20] 0
4 sine_out[19] *348:A 0
5 sine_out[19] *518:A 1.54556e-05
6 sine_out[19] *519:A 0
7 sine_out[19] *229:43 0
8 sine_out[18] sine_out[19] 0
*RES
1 *519:X sine_out[19] 31.0879 
*END

*D_NET *18 0.00341125
*CONN
*P sine_out[1] O
*I *520:X O *D sg13g2_buf_2
*CAP
1 sine_out[1] 0.00162072
2 *520:X 8.49101e-05
3 *18:8 0.00170563
4 sine_out[1] sine_out[2] 0
5 sine_out[1] *327:A 0
6 sine_out[1] *327:B 0
7 sine_out[1] *466:A 0
8 sine_out[1] *33:14 0
9 sine_out[1] *34:10 0
10 sine_out[1] *59:10 0
11 sine_out[1] *208:18 0
12 sine_out[0] sine_out[1] 0
*RES
1 *520:X *18:8 40.8446 
2 *18:8 sine_out[1] 37.9078 
*END

*D_NET *19 0.00197818
*CONN
*P sine_out[20] O
*I *521:X O *D sg13g2_buf_2
*CAP
1 sine_out[20] 0.00098136
2 *521:X 0.00098136
3 sine_out[20] sine_out[21] 0
4 sine_out[20] sine_out[22] 0
5 sine_out[20] *519:A 1.54556e-05
6 sine_out[20] *521:A 0
7 sine_out[19] sine_out[20] 0
*RES
1 *521:X sine_out[20] 31.5411 
*END

*D_NET *20 0.00325457
*CONN
*P sine_out[21] O
*I *522:X O *D sg13g2_buf_2
*CAP
1 sine_out[21] 0.000504092
2 *522:X 0.000642222
3 *20:10 0.00114631
4 sine_out[21] sine_out[22] 0
5 *20:10 sine_out[22] 0
6 *20:10 sine_out[24] 0.000726884
7 *20:10 *345:B1 0
8 *20:10 *22:10 0.000235055
9 sine_out[20] sine_out[21] 0
*RES
1 *522:X *20:10 47.931 
2 *20:10 sine_out[21] 21.2924 
*END

*D_NET *21 0.00253738
*CONN
*P sine_out[22] O
*I *523:X O *D sg13g2_buf_2
*CAP
1 sine_out[22] 0.000720932
2 *523:X 0.00054776
3 *21:10 0.00126869
4 sine_out[22] sine_out[23] 0
5 *21:10 sine_out[24] 0
6 *21:10 sine_out[25] 0
7 sine_out[20] sine_out[22] 0
8 sine_out[21] sine_out[22] 0
9 *20:10 sine_out[22] 0
*RES
1 *523:X *21:10 45.8298 
2 *21:10 sine_out[22] 23.4304 
*END

*D_NET *22 0.00401169
*CONN
*P sine_out[23] O
*I *524:X O *D sg13g2_buf_2
*CAP
1 sine_out[23] 0.00052588
2 *524:X 0.000667809
3 *22:10 0.00119369
4 sine_out[23] sine_out[24] 0
5 *22:10 sine_out[26] 0.00069463
6 *22:10 sine_out[27] 0.00069463
7 sine_out[22] sine_out[23] 0
8 *20:10 *22:10 0.000235055
*RES
1 *524:X *22:10 48.4563 
2 *22:10 sine_out[23] 25.9482 
*END

*D_NET *23 0.00338225
*CONN
*P sine_out[24] O
*I *526:X O *D sg13g2_buf_2
*CAP
1 sine_out[24] 0.000952168
2 *526:X 0.000375514
3 *23:8 0.00132768
4 sine_out[24] sine_out[25] 0
5 *23:8 *26:12 0
6 *23:8 *194:8 0
7 *23:8 *197:14 0
8 sine_out[23] sine_out[24] 0
9 *20:10 sine_out[24] 0.000726884
10 *21:10 sine_out[24] 0
*RES
1 *526:X *23:8 43.811 
2 *23:8 sine_out[24] 30.9438 
*END

*D_NET *24 0.00412184
*CONN
*P sine_out[25] O
*I *527:X O *D sg13g2_buf_2
*CAP
1 sine_out[25] 0.00183689
2 *527:X 0.00183689
3 sine_out[25] sine_out[26] 0
4 sine_out[25] *369:A2 0
5 sine_out[25] *522:A 0
6 sine_out[25] *524:A 0.000176482
7 sine_out[25] *535:A 0
8 sine_out[25] *66:93 7.98942e-05
9 sine_out[25] *200:12 7.92265e-05
10 sine_out[25] *206:10 0.000112454
11 sine_out[25] *230:16 0
12 sine_out[24] sine_out[25] 0
13 *21:10 sine_out[25] 0
*RES
1 *527:X sine_out[25] 37.3202 
*END

*D_NET *25 0.00500417
*CONN
*P sine_out[26] O
*I *528:X O *D sg13g2_buf_2
*CAP
1 sine_out[26] 0.00143119
2 *528:X 0.000332188
3 *25:12 0.00176337
4 sine_out[26] sine_out[27] 0
5 sine_out[26] *330:B 0.0001122
6 sine_out[26] *524:A 0.000176482
7 sine_out[26] *230:16 1.54008e-05
8 *25:12 *66:93 0.000140263
9 *25:12 *76:10 0
10 *25:12 *76:38 0
11 *25:12 *79:46 0
12 *25:12 *225:27 0
13 *25:12 *230:16 0.00033845
14 sine_out[25] sine_out[26] 0
15 *22:10 sine_out[26] 0.00069463
*RES
1 *528:X *25:12 43.399 
2 *25:12 sine_out[26] 34.4669 
*END

*D_NET *26 0.00462708
*CONN
*P sine_out[27] O
*I *529:X O *D sg13g2_buf_2
*CAP
1 sine_out[27] 0.00114935
2 *529:X 0.000450107
3 *26:12 0.00159945
4 sine_out[27] sine_out[28] 0
5 sine_out[27] *197:14 0
6 *26:12 sine_out[29] 0.000209899
7 *26:12 *184:61 0
8 *26:12 *197:14 0
9 *26:12 *224:10 0.00012816
10 *26:12 *224:18 0.000395481
11 sine_out[26] sine_out[27] 0
12 *22:10 sine_out[27] 0.00069463
13 *23:8 *26:12 0
*RES
1 *529:X *26:12 45.4384 
2 *26:12 sine_out[27] 29.4446 
*END

*D_NET *27 0.00390433
*CONN
*P sine_out[28] O
*I *530:X O *D sg13g2_buf_2
*CAP
1 sine_out[28] 0.00165578
2 *530:X 0.00165578
3 sine_out[28] sine_out[29] 0
4 sine_out[28] *364:B1 4.77699e-05
5 sine_out[28] *366:B1 0.000240492
6 sine_out[28] *491:A 0
7 sine_out[28] *534:A 0
8 sine_out[28] *66:93 8.02267e-05
9 sine_out[28] *184:61 0
10 sine_out[28] *197:14 0
11 sine_out[28] *202:10 0.000144169
12 sine_out[28] *204:10 0
13 sine_out[28] *224:18 8.01118e-05
14 sine_out[28] *225:27 0
15 sine_out[28] *225:44 0
16 sine_out[27] sine_out[28] 0
*RES
1 *530:X sine_out[28] 37.4039 
*END

*D_NET *28 0.00400364
*CONN
*P sine_out[29] O
*I *531:X O *D sg13g2_buf_2
*CAP
1 sine_out[29] 0.00163937
2 *531:X 0.00163937
3 sine_out[29] sine_out[30] 0.000210196
4 sine_out[29] sine_out[31] 0
5 sine_out[29] *364:A2 0
6 sine_out[29] *529:A 8.03692e-05
7 sine_out[29] *78:10 4.77699e-05
8 sine_out[29] *184:61 0.000176673
9 sine_out[29] *224:10 0
10 sine_out[28] sine_out[29] 0
11 *26:12 sine_out[29] 0.000209899
*RES
1 *531:X sine_out[29] 31.3785 
*END

*D_NET *29 0.00428955
*CONN
*P sine_out[2] O
*I *532:X O *D sg13g2_buf_2
*CAP
1 sine_out[2] 0.00169393
2 *532:X 0.00169393
3 sine_out[2] sine_out[3] 0
4 sine_out[2] *327:A 0.000112541
5 sine_out[2] *327:B 0
6 sine_out[2] *466:A 0
7 sine_out[2] *33:14 1.54556e-05
8 sine_out[2] *34:10 0.00037204
9 sine_out[2] *66:55 0
10 sine_out[2] *158:103 8.00842e-05
11 sine_out[2] *165:37 8.03692e-05
12 sine_out[2] *172:10 0
13 sine_out[2] *208:18 0.000241195
14 sine_out[1] sine_out[2] 0
*RES
1 *532:X sine_out[2] 37.4534 
*END

*D_NET *30 0.00347301
*CONN
*P sine_out[30] O
*I *533:X O *D sg13g2_buf_2
*CAP
1 sine_out[30] 0.000796142
2 *533:X 0.000123735
3 *30:14 0.00140279
4 *30:8 0.000730388
5 sine_out[30] sine_out[31] 0
6 *30:8 sine_out[31] 0
7 *30:8 *184:61 0.000209756
8 sine_out[29] sine_out[30] 0.000210196
*RES
1 *533:X *30:8 41.4008 
2 *30:8 *30:14 47.8898 
3 *30:14 sine_out[30] 22.5356 
*END

*D_NET *31 0.00379472
*CONN
*P sine_out[31] O
*I *534:X O *D sg13g2_buf_2
*CAP
1 sine_out[31] 0.00167005
2 *534:X 0.000227307
3 *31:8 0.00189736
4 sine_out[31] sine_out[32] 0
5 sine_out[31] *184:61 0
6 *31:8 *32:8 0
7 *31:8 *184:49 0
8 sine_out[29] sine_out[31] 0
9 sine_out[30] sine_out[31] 0
10 *3:9 sine_out[31] 0
11 *30:8 sine_out[31] 0
*RES
1 *534:X *31:8 42.3278 
2 *31:8 sine_out[31] 36.1566 
*END

*D_NET *32 0.00463301
*CONN
*P sine_out[32] O
*I *535:X O *D sg13g2_buf_2
*CAP
1 sine_out[32] 0.00138514
2 *535:X 0.000707524
3 *32:8 0.00209266
4 *32:8 *354:B 0.000447685
5 *32:8 *184:61 0
6 *32:8 *205:10 0
7 *32:8 *235:14 0
8 sine_out[31] sine_out[32] 0
9 *3:9 sine_out[32] 0
10 *31:8 *32:8 0
*RES
1 *535:X *32:8 47.7662 
2 *32:8 sine_out[32] 36.547 
*END

*D_NET *33 0.00378214
*CONN
*P sine_out[3] O
*I *537:X O *D sg13g2_buf_2
*CAP
1 sine_out[3] 0.00134702
2 *537:X 0.00031306
3 *33:14 0.00166008
4 sine_out[3] sine_out[4] 0
5 sine_out[3] *462:A1 8.01995e-05
6 sine_out[3] *540:A 0
7 sine_out[3] *35:10 0
8 sine_out[3] *158:103 8.00842e-05
9 sine_out[3] *214:10 0
10 *33:14 *462:A1 0
11 *33:14 *466:A 0
12 *33:14 *158:62 0.000125963
13 *33:14 *169:16 0
14 *33:14 *172:10 0.000144843
15 *33:14 *208:18 1.54282e-05
16 sine_out[1] *33:14 0
17 sine_out[2] sine_out[3] 0
18 sine_out[2] *33:14 1.54556e-05
*RES
1 *537:X *33:14 43.1312 
2 *33:14 sine_out[3] 33.1068 
*END

*D_NET *34 0.00293066
*CONN
*P sine_out[4] O
*I *538:X O *D sg13g2_buf_2
*CAP
1 sine_out[4] 0.000883231
2 *538:X 0.00039608
3 *34:10 0.00127931
4 sine_out[4] sine_out[5] 0
5 sine_out[4] *35:10 0
6 sine_out[4] *36:10 0
7 sine_out[1] *34:10 0
8 sine_out[2] *34:10 0.00037204
9 sine_out[3] sine_out[4] 0
*RES
1 *538:X *34:10 44.5629 
2 *34:10 sine_out[4] 25.8892 
*END

*D_NET *35 0.00258142
*CONN
*P sine_out[5] O
*I *539:X O *D sg13g2_buf_2
*CAP
1 sine_out[5] 0.000237975
2 *539:X 0.000988403
3 *35:10 0.00122638
4 sine_out[5] sine_out[6] 0
5 *35:10 *36:10 0.000128663
6 sine_out[3] *35:10 0
7 sine_out[4] sine_out[5] 0
8 sine_out[4] *35:10 0
*RES
1 *539:X *35:10 49.476 
2 *35:10 sine_out[5] 22.7038 
*END

*D_NET *36 0.00236737
*CONN
*P sine_out[6] O
*I *540:X O *D sg13g2_buf_2
*CAP
1 sine_out[6] 0.000256234
2 *540:X 0.00086312
3 *36:10 0.00111935
4 sine_out[6] sine_out[7] 0
5 *36:10 sine_out[7] 0
6 *36:10 *540:A 0
7 sine_out[4] *36:10 0
8 sine_out[5] sine_out[6] 0
9 *35:10 *36:10 0.000128663
*RES
1 *540:X *36:10 47.3149 
2 *36:10 sine_out[6] 20.6101 
*END

*D_NET *37 0.00218085
*CONN
*P sine_out[7] O
*I *541:X O *D sg13g2_buf_2
*CAP
1 sine_out[7] 0.00108273
2 *541:X 0.00108273
3 sine_out[7] sine_out[8] 1.53827e-05
4 sine_out[7] *540:A 0
5 sine_out[6] sine_out[7] 0
6 *36:10 sine_out[7] 0
*RES
1 *541:X sine_out[7] 29.2935 
*END

*D_NET *38 0.00220924
*CONN
*P sine_out[8] O
*I *542:X O *D sg13g2_buf_2
*CAP
1 sine_out[8] 0.00109693
2 *542:X 0.00109693
3 sine_out[8] sine_out[9] 0
4 sine_out[7] sine_out[8] 1.53827e-05
*RES
1 *542:X sine_out[8] 31.7883 
*END

*D_NET *39 0.00202463
*CONN
*P sine_out[9] O
*I *543:X O *D sg13g2_buf_2
*CAP
1 sine_out[9] 0.00100484
2 *543:X 0.00100484
3 sine_out[9] *546:A 1.49483e-05
4 sine_out[9] *175:48 0
5 sine_out[10] sine_out[9] 0
6 sine_out[8] sine_out[9] 0
*RES
1 *543:X sine_out[9] 31.0879 
*END

*D_NET *40 0.00561048
*CONN
*I *481:D I *D sg13g2_dfrbpq_1
*I *399:Y O *D sg13g2_inv_1
*CAP
1 *481:D 0
2 *399:Y 0.000311772
3 *40:32 0.00126743
4 *40:18 0.00144711
5 *40:10 0.000491447
6 *40:10 *161:26 0.000120153
7 *40:10 *168:18 2.19989e-05
8 *40:18 *74:18 0.000205932
9 *40:18 *166:56 0.000238616
10 *40:18 *242:10 7.30101e-05
11 *40:32 *375:A 0.00052948
12 *40:32 *377:A1 0
13 *40:32 *378:B 0.00027801
14 *40:32 *437:A2 0.000144768
15 *40:32 *65:26 0
16 *40:32 *132:33 0
17 *40:32 *241:57 0.000240377
18 *40:32 *241:85 0.000240377
*RES
1 *399:Y *40:10 42.3381 
2 *40:10 *40:18 41.9673 
3 *40:18 *40:32 31.9583 
4 *40:32 *481:D 20 
*END

*D_NET *41 0.000619308
*CONN
*I *480:D I *D sg13g2_dfrbpq_1
*I *394:Y O *D sg13g2_xnor2_1
*CAP
1 *480:D 0.000221552
2 *394:Y 0.000221552
3 *480:D *97:26 0
4 *480:D *227:24 0
5 *480:D *227:34 0
6 *480:D *244:16 0.000176205
*RES
1 *394:Y *480:D 41.9673 
*END

*D_NET *42 0.000488329
*CONN
*I *488:A I *D sg13g2_buf_8
*I *489:A I *D sg13g2_buf_2
*I *481:Q O *D sg13g2_dfrbpq_1
*CAP
1 *488:A 4.72978e-05
2 *489:A 2.77263e-05
3 *481:Q 0.00016914
4 *42:6 0.000244164
5 *42:6 *221:10 0
6 *42:6 *222:8 0
*RES
1 *481:Q *42:6 21.6171 
2 *42:6 *489:A 20.3502 
3 *42:6 *488:A 20.5974 
*END

*D_NET *43 0.00103198
*CONN
*I *513:A I *D sg13g2_dlygate4sd3_1
*I *473:Q O *D sg13g2_dfrbpq_1
*CAP
1 *513:A 0.000139315
2 *473:Q 7.05188e-05
3 *43:10 0.000209833
4 *513:A *102:8 0
5 *513:A *160:22 0.000207654
6 *43:10 *377:B1 4.75151e-05
7 *43:10 *221:29 0.000179148
8 *43:10 *227:139 0.000177998
*RES
1 *473:Q *43:10 41.1639 
2 *43:10 *513:A 41.4008 
*END

*D_NET *44 0.00502044
*CONN
*I *509:A I *D sg13g2_buf_1
*I *474:Q O *D sg13g2_dfrbpq_1
*CAP
1 *509:A 0.000591313
2 *474:Q 0.000753145
3 *44:16 0.00134446
4 *509:A *325:B 2.17891e-05
5 *509:A *456:A 0.000208853
6 *509:A *456:B 4.77425e-05
7 *509:A *57:10 0.000111685
8 *509:A *59:10 0
9 *509:A *65:26 0
10 *509:A *157:10 0
11 *509:A *158:36 0
12 *509:A *170:14 0.000127542
13 *509:A *172:22 0
14 *509:A *227:24 0.000191157
15 *509:A *227:34 0
16 *509:A *244:10 7.98509e-05
17 *44:16 *373:B1 0.000175693
18 *44:16 *57:10 0
19 *44:16 *65:26 0
20 *44:16 *81:8 0.00101528
21 *44:16 *83:12 0.000175693
22 *44:16 *100:14 0.000176236
*RES
1 *474:Q *44:16 48.3327 
2 *44:16 *509:A 45.8401 
*END

*D_NET *45 0.000442237
*CONN
*I *474:D I *D sg13g2_dfrbpq_1
*I *372:Y O *D sg13g2_xnor2_1
*CAP
1 *474:D 0.000133294
2 *372:Y 0.000133294
3 *474:D *305:A 0
4 *474:D *227:14 0.000175648
*RES
1 *372:Y *474:D 41.1845 
*END

*D_NET *46 0.000878554
*CONN
*I *506:A I *D sg13g2_buf_8
*I *475:Q O *D sg13g2_dfrbpq_1
*CAP
1 *506:A 0
2 *475:Q 0.000374946
3 *46:10 0.000374946
4 *46:10 *61:12 0
5 *46:10 *75:24 0
6 *46:10 *87:8 0.000128663
7 *46:10 *222:8 0
*RES
1 *475:Q *46:10 44.1921 
2 *46:10 *506:A 40 
*END

*D_NET *47 0.00285523
*CONN
*I *475:D I *D sg13g2_dfrbpq_1
*I *376:X O *D sg13g2_xor2_1
*CAP
1 *475:D 0.000132244
2 *376:X 0.000360733
3 *47:10 0.000492976
4 *475:D *408:B 0.000112426
5 *47:10 *432:A 0.000179079
6 *47:10 *99:33 0.00036918
7 *47:10 *106:10 0.000304378
8 *47:10 *132:33 0.000362567
9 *47:10 *161:10 0.000541646
*RES
1 *376:X *47:10 45.0573 
2 *47:10 *475:D 41.1845 
*END

*D_NET *48 0.00419276
*CONN
*I *504:A I *D sg13g2_buf_1
*I *503:A I *D sg13g2_buf_8
*I *476:Q O *D sg13g2_dfrbpq_1
*CAP
1 *504:A 0.000642947
2 *503:A 0.000367615
3 *476:Q 0
4 *48:6 0.00101056
5 *503:A *75:24 0
6 *503:A *90:10 0.000403921
7 *503:A *185:28 0.000448013
8 *503:A *241:27 0.000403894
9 *504:A *360:B 0
10 *504:A *385:A 0
11 *504:A *75:24 0
12 *504:A *185:18 5.30319e-05
13 *504:A *185:28 0.000653839
14 *504:A *230:6 0
15 *504:A *238:16 0.000208941
*RES
1 *476:Q *48:6 40 
2 *48:6 *503:A 44.7792 
3 *48:6 *504:A 46.6641 
*END

*D_NET *49 0.000172882
*CONN
*I *476:D I *D sg13g2_dfrbpq_1
*I *380:X O *D sg13g2_xor2_1
*CAP
1 *476:D 8.64409e-05
2 *380:X 8.64409e-05
*RES
1 *380:X *476:D 41.0918 
*END

*D_NET *50 0.000465673
*CONN
*I *502:A I *D sg13g2_buf_8
*I *477:Q O *D sg13g2_dfrbpq_1
*CAP
1 *502:A 0.000232836
2 *477:Q 0.000232836
3 *502:A *461:A 0
4 *502:A *54:55 0
*RES
1 *477:Q *502:A 41.9673 
*END

*D_NET *51 0.00176771
*CONN
*I *477:D I *D sg13g2_dfrbpq_1
*I *384:X O *D sg13g2_xor2_1
*CAP
1 *477:D 0.00031958
2 *384:X 2.50753e-05
3 *51:8 0.000344655
4 *477:D *387:B1 0.00053229
5 *477:D *389:B1 0
6 *477:D *93:6 1.54008e-05
7 *477:D *93:23 0.000274297
8 *51:8 *75:24 0.00012816
9 *51:8 *90:10 0.000128247
*RES
1 *384:X *51:8 40.5974 
2 *51:8 *477:D 43.5638 
*END

*D_NET *52 0.0019171
*CONN
*I *498:A I *D sg13g2_buf_2
*I *478:Q O *D sg13g2_dfrbpq_1
*CAP
1 *498:A 0.000328765
2 *478:Q 0.000362901
3 *52:8 0.000691665
4 *498:A *390:A 0
5 *498:A *231:42 0.000533769
6 *498:A *232:8 0
7 *52:8 *246:96 0
*RES
1 *478:Q *52:8 43.811 
2 *52:8 *498:A 43.5638 
*END

*D_NET *53 0.00272982
*CONN
*I *478:D I *D sg13g2_dfrbpq_1
*I *388:X O *D sg13g2_xor2_1
*CAP
1 *478:D 0.000621648
2 *388:X 0.000621648
3 *478:D *381:B 0.000112426
4 *478:D *387:B1 0.000563766
5 *478:D *390:A 0.000246561
6 *478:D *391:A 0
7 *478:D *91:12 0.000563766
*RES
1 *388:X *478:D 46.9731 
*END

*D_NET *54 0.0100965
*CONN
*I *493:A I *D sg13g2_buf_1
*I *490:A I *D sg13g2_buf_8
*I *435:A I *D sg13g2_nor4_1
*I *479:Q O *D sg13g2_dfrbpq_2
*CAP
1 *493:A 0
2 *490:A 2.60565e-05
3 *435:A 0
4 *479:Q 0.00143439
5 *54:55 0.00106518
6 *54:28 0.00161287
7 *54:14 0.00200814
8 *490:A *184:49 4.77425e-05
9 *490:A *230:6 4.77425e-05
10 *54:14 *223:107 0.000177299
11 *54:14 *225:19 0.00012816
12 *54:14 *225:72 6.62898e-06
13 *54:14 *236:12 0.000181192
14 *54:28 *317:A 0
15 *54:28 *390:B 0.000235228
16 *54:28 *429:C 1.54008e-05
17 *54:28 *435:B 8.00842e-05
18 *54:28 *439:B 0
19 *54:28 *441:A2 4.76973e-05
20 *54:28 *445:A 8.0342e-05
21 *54:28 *445:C 0
22 *54:28 *74:10 0
23 *54:28 *115:37 0
24 *54:28 *135:27 4.68833e-05
25 *54:28 *146:14 0
26 *54:28 *176:44 0
27 *54:28 *223:10 0
28 *54:28 *225:19 0.000424998
29 *54:28 *232:18 0
30 *54:28 *232:84 0
31 *54:28 *234:10 0
32 *54:28 *234:16 0
33 *54:28 *234:20 0.000392037
34 *54:28 *241:109 0.000233917
35 *54:28 *242:10 0
36 *54:28 *243:46 0.000657092
37 *54:55 *461:A 0.000209899
38 *54:55 *223:107 0
39 *54:55 *225:72 0
40 *54:55 *246:96 0.000857125
41 *502:A *54:55 0
42 *514:A *54:55 8.03692e-05
*RES
1 *479:Q *54:14 44.429 
2 *54:14 *54:28 36.5933 
3 *54:28 *435:A 20 
4 *54:14 *490:A 40.3193 
5 *479:Q *54:55 31.3815 
6 *54:55 *493:A 20 
*END

*D_NET *55 0.000347773
*CONN
*I *479:D I *D sg13g2_dfrbpq_2
*I *391:Y O *D sg13g2_xnor2_1
*CAP
1 *479:D 0.000173886
2 *391:Y 0.000173886
3 *479:D *390:A 0
4 *479:D *391:B 0
*RES
1 *391:Y *479:D 41.751 
*END

*D_NET *56 0.0237098
*CONN
*I *343:A1 I *D sg13g2_o21ai_1
*I *318:A I *D sg13g2_nor2_1
*I *373:A1 I *D sg13g2_o21ai_1
*I *473:D I *D sg13g2_dfrbpq_1
*I *314:A I *D sg13g2_nor2_1
*I *308:Y O *D sg13g2_inv_2
*CAP
1 *343:A1 0
2 *318:A 0
3 *373:A1 0
4 *473:D 0
5 *314:A 0.000449842
6 *308:Y 0.000111659
7 *56:88 0.000932418
8 *56:67 0.000685878
9 *56:59 0.00221577
10 *56:52 4.48888e-05
11 *56:44 0.00103292
12 *56:35 0.000231086
13 *56:27 0.00136567
14 *56:12 0.00227188
15 *56:10 0.00118967
16 *314:A *59:10 0
17 *314:A *59:14 0.00140781
18 *314:A *159:40 0.000502462
19 *314:A *161:10 0
20 *314:A *196:31 0
21 *314:A *227:34 0
22 *56:10 *185:10 0
23 *56:10 *246:102 0
24 *56:12 *496:A 0
25 *56:12 *59:14 0.00074386
26 *56:12 *61:12 0
27 *56:12 *92:8 0
28 *56:12 *185:10 0
29 *56:12 *196:31 0
30 *56:12 *221:108 0.000449015
31 *56:12 *231:10 0
32 *56:12 *241:10 0.00236972
33 *56:27 *57:16 0.000597381
34 *56:27 *64:14 0
35 *56:27 *166:32 0
36 *56:35 *97:12 0.000143351
37 *56:35 *215:39 0.000281461
38 *56:35 *244:30 0
39 *56:44 *57:16 0
40 *56:44 *166:26 0.00030235
41 *56:44 *215:35 4.6736e-05
42 *56:44 *215:97 0.000417175
43 *56:44 *215:120 6.28529e-05
44 *56:52 *373:A2 7.31538e-06
45 *56:52 *99:10 3.96571e-05
46 *56:52 *221:39 7.30101e-05
47 *56:52 *246:33 7.31655e-05
48 *56:59 *133:39 0.000757568
49 *56:59 *159:62 7.90251e-05
50 *56:59 *166:26 6.44122e-05
51 *56:59 *166:72 1.55639e-05
52 *56:59 *215:120 0.000207934
53 *56:59 *234:92 0.000110801
54 *56:59 *239:14 0
55 *56:67 *466:A 0
56 *56:67 *114:12 0.00115934
57 *56:67 *164:30 0
58 *56:67 *165:12 0.000387211
59 *56:67 *169:44 0
60 *56:67 *203:41 7.47964e-05
61 *56:67 *223:24 0.0011583
62 *56:88 *415:A2 0
63 *56:88 *103:10 0.000279156
64 *56:88 *117:10 8.00842e-05
65 *56:88 *133:39 0.0002926
66 *56:88 *151:8 0.000227775
67 *56:88 *166:72 0.000766181
68 *56:88 *239:14 0
69 sine_out[13] *56:88 0
*RES
1 *308:Y *56:10 41.3802 
2 *56:10 *56:12 17.6851 
3 *56:12 *314:A 46.8495 