*SPEF "ieee 1481-1999"
*DESIGN "DigitalSine"
*DATE "17:45:56 Friday December 12, 2025"
*VENDOR "The OpenROAD Project"
*PROGRAM "OpenROAD"
*VERSION "341650e72dad0dc8571822ff8c5d9c5e365327f7"
*DESIGN_FLOW "NAME_SCOPE LOCAL" "PIN_CAP NONE"
*DIVIDER /
*DELIMITER :
*BUS_DELIMITER []
*T_UNIT 1 NS
*C_UNIT 1 PF
*R_UNIT 1 OHM
*L_UNIT 1 HENRY

*NAME_MAP
*3 clk
*4 rst
*5 sign
*6 signB
*7 sine_out[0]
*8 sine_out[10]
*9 sine_out[11]
*10 sine_out[12]
*11 sine_out[13]
*12 sine_out[14]
*13 sine_out[15]
*14 sine_out[16]
*15 sine_out[17]
*16 sine_out[18]
*17 sine_out[19]
*18 sine_out[1]
*19 sine_out[20]
*20 sine_out[21]
*21 sine_out[22]
*22 sine_out[23]
*23 sine_out[24]
*24 sine_out[25]
*25 sine_out[26]
*26 sine_out[27]
*27 sine_out[28]
*28 sine_out[29]
*29 sine_out[2]
*30 sine_out[30]
*31 sine_out[31]
*32 sine_out[32]
*33 sine_out[3]
*34 sine_out[4]
*35 sine_out[5]
*36 sine_out[6]
*37 sine_out[7]
*38 sine_out[8]
*39 sine_out[9]
*40 CTRL\.P0
*41 CTRL\.P1
*42 CTRL\.S0
*43 DPATH\.SUM\.Cout0
*44 DPATH\.SUM\.fa_1\.A
*45 DPATH\.SUM\.fa_1\.S
*46 DPATH\.SUM\.fa_2\.A
*47 DPATH\.SUM\.fa_2\.S
*48 DPATH\.SUM\.fa_3\.A
*49 DPATH\.SUM\.fa_3\.S
*50 DPATH\.SUM\.fa_4\.A
*51 DPATH\.SUM\.fa_4\.S
*52 DPATH\.SUM\.fa_5\.A
*53 DPATH\.SUM\.fa_5\.S
*54 DPATH\.SUM\.fa_6\.A
*55 DPATH\.SUM\.fa_6\.S
*56 DPATH\.SUM\.ha_0\.S
*57 _000_
*58 _001_
*59 _002_
*60 _003_
*61 _004_
*62 _005_
*63 _006_
*64 _007_
*65 _008_
*66 _009_
*67 _010_
*68 _011_
*69 _012_
*70 _013_
*71 _014_
*72 _015_
*73 _016_
*74 _017_
*75 _018_
*76 _019_
*77 _020_
*78 _021_
*79 _022_
*80 _023_
*81 _024_
*82 _025_
*83 _026_
*84 _027_
*85 _028_
*86 _029_
*87 _030_
*88 _031_
*89 _032_
*90 _033_
*91 _034_
*92 _035_
*93 _036_
*94 _037_
*95 _038_
*96 _039_
*97 _040_
*98 _041_
*99 _042_
*100 _043_
*101 _044_
*102 _045_
*103 _046_
*104 _047_
*105 _048_
*106 _049_
*107 _050_
*108 _051_
*109 _052_
*110 _053_
*111 _054_
*112 _055_
*113 _056_
*114 _057_
*115 _058_
*116 _059_
*117 _060_
*118 _061_
*119 _062_
*120 _063_
*121 _064_
*122 _065_
*123 _066_
*124 _067_
*125 _068_
*126 _069_
*127 _070_
*128 _071_
*129 _072_
*130 _073_
*131 _074_
*132 _075_
*133 _076_
*134 _077_
*135 _078_
*136 _079_
*137 _080_
*138 _081_
*139 _082_
*140 _083_
*141 _084_
*142 _085_
*143 _086_
*144 _087_
*145 _088_
*146 _089_
*147 _090_
*148 _091_
*149 _092_
*150 _093_
*151 _094_
*152 _095_
*153 _096_
*154 _097_
*155 _098_
*156 _099_
*157 _100_
*158 _101_
*159 _102_
*160 _103_
*161 _104_
*162 _105_
*163 _106_
*164 _107_
*165 _108_
*166 _109_
*167 _110_
*168 _111_
*169 _112_
*170 _113_
*171 _114_
*172 _115_
*173 _116_
*174 _117_
*175 _118_
*176 _119_
*177 _120_
*178 _121_
*179 _122_
*180 _123_
*181 _124_
*182 clknet_0_clk
*183 clknet_1_0__leaf_clk
*184 clknet_1_1__leaf_clk
*185 net1
*186 net10
*187 net11
*188 net12
*189 net13
*190 net14
*191 net15
*192 net16
*193 net17
*194 net18
*195 net19
*196 net2
*197 net20
*198 net21
*199 net22
*200 net23
*201 net24
*202 net25
*203 net26
*204 net27
*205 net28
*206 net29
*207 net3
*208 net30
*209 net31
*210 net32
*211 net33
*212 net34
*213 net35
*214 net36
*215 net37
*216 net38
*217 net39
*218 net4
*219 net40
*220 net41
*221 net42
*222 net43
*223 net44
*224 net45
*225 net46
*226 net47
*227 net48
*228 net49
*229 net5
*230 net54
*231 net55
*232 net56
*233 net57
*234 net58
*235 net59
*236 net6
*237 net60
*238 net61
*239 net62
*240 net63
*241 net64
*242 net65
*243 net66
*244 net67
*245 net68
*246 net69
*247 net7
*248 net70
*249 net71
*250 net72
*251 net73
*252 net74
*253 net75
*254 net76
*255 net77
*256 net78
*257 net8
*258 net9
*259 FILLER_0_0
*260 FILLER_0_105
*261 FILLER_0_112
*262 FILLER_0_119
*263 FILLER_0_126
*264 FILLER_0_128
*265 FILLER_0_14
*266 FILLER_0_21
*267 FILLER_0_28
*268 FILLER_0_35
*269 FILLER_0_7
*270 FILLER_0_91
*271 FILLER_0_98
*272 FILLER_10_0
*273 FILLER_10_44
*274 FILLER_10_83
*275 FILLER_11_0
*276 FILLER_11_113
*277 FILLER_11_115
*278 FILLER_11_16
*279 FILLER_11_37
*280 FILLER_11_59
*281 FILLER_11_71
*282 FILLER_11_82
*283 FILLER_12_0
*284 FILLER_12_22
*285 FILLER_12_44
*286 FILLER_12_60
*287 FILLER_12_67
*288 FILLER_12_76
*289 FILLER_12_91
*290 FILLER_12_93
*291 FILLER_13_0
*292 FILLER_13_112
*293 FILLER_13_114
*294 FILLER_13_128
*295 FILLER_13_17
*296 FILLER_13_2
*297 FILLER_13_24
*298 FILLER_13_26
*299 FILLER_13_35
*300 FILLER_13_48
*301 FILLER_13_57
*302 FILLER_13_69
*303 FILLER_13_84
*304 FILLER_13_86
*305 FILLER_13_96
*306 FILLER_14_0
*307 FILLER_14_103
*308 FILLER_14_128
*309 FILLER_14_23
*310 FILLER_14_25
*311 FILLER_14_47
*312 FILLER_14_49
*313 FILLER_14_71
*314 FILLER_15_106
*315 FILLER_15_22
*316 FILLER_15_83
*317 FILLER_1_0
*318 FILLER_1_107
*319 FILLER_1_114
*320 FILLER_1_121
*321 FILLER_1_128
*322 FILLER_1_14
*323 FILLER_1_21
*324 FILLER_1_28
*325 FILLER_1_7
*326 FILLER_2_11
*327 FILLER_2_115
*328 FILLER_2_122
*329 FILLER_2_124
*330 FILLER_2_18
*331 FILLER_2_25
*332 FILLER_2_4
*333 FILLER_2_64
*334 FILLER_2_86
*335 FILLER_3_0
*336 FILLER_3_104
*337 FILLER_3_108
*338 FILLER_3_116
*339 FILLER_3_14
*340 FILLER_3_21
*341 FILLER_3_28
*342 FILLER_3_7
*343 FILLER_3_87
*344 FILLER_4_0
*345 FILLER_4_100
*346 FILLER_4_14
*347 FILLER_4_21
*348 FILLER_4_28
*349 FILLER_4_42
*350 FILLER_4_56
*351 FILLER_4_66
*352 FILLER_4_7
*353 FILLER_4_78
*354 FILLER_5_11
*355 FILLER_5_15
*356 FILLER_5_31
*357 FILLER_5_38
*358 FILLER_5_4
*359 FILLER_5_42
*360 FILLER_5_66
*361 FILLER_5_95
*362 FILLER_6_0
*363 FILLER_6_114
*364 FILLER_6_19
*365 FILLER_6_2
*366 FILLER_6_31
*367 FILLER_6_46
*368 FILLER_6_53
*369 FILLER_6_7
*370 FILLER_6_84
*371 FILLER_7_0
*372 FILLER_7_128
*373 FILLER_7_2
*374 FILLER_7_32
*375 FILLER_7_37
*376 FILLER_7_47
*377 FILLER_7_54
*378 FILLER_7_56
*379 FILLER_7_70
*380 FILLER_7_72
*381 FILLER_8_15
*382 FILLER_8_38
*383 FILLER_8_4
*384 FILLER_8_40
*385 FILLER_8_49
*386 FILLER_8_53
*387 FILLER_8_59
*388 FILLER_9_0
*389 FILLER_9_101
*390 FILLER_9_2
*391 FILLER_9_30
*392 FILLER_9_37
*393 FILLER_9_39
*394 FILLER_9_45
*395 FILLER_9_47
*396 FILLER_9_55
*397 FILLER_9_57
*398 FILLER_9_67
*399 FILLER_9_69
*400 FILLER_9_75
*401 FILLER_9_81
*402 _125_
*403 _126_
*404 _127_
*405 _128_
*406 _129_
*407 _130_
*408 _131_
*409 _132_
*410 _133_
*411 _134_
*412 _135_
*413 _136_
*414 _137_
*415 _138_
*416 _139_
*417 _140_
*418 _141_
*419 _142_
*420 _143_
*421 _144_
*422 _145_
*423 _146_
*424 _147_
*425 _148_
*426 _149_
*427 _150_
*428 _151_
*429 _152_
*430 _153_
*431 _154_
*432 _155_
*433 _156_
*434 _157_
*435 _158_
*436 _159_
*437 _160_
*438 _161_
*439 _162_
*440 _163_
*441 _164_
*442 _165_
*443 _166_
*444 _167_
*445 _168_
*446 _169_
*447 _170_
*448 _171_
*449 _172_
*450 _173_
*451 _174_
*452 _175_
*453 _176_
*454 _177_
*455 _178_
*456 _179_
*457 _180_
*458 _181_
*459 _182_
*460 _183_
*461 _184_
*462 _185_
*463 _186_
*464 _187_
*465 _188_
*466 _189_
*467 _190_
*468 _191_
*469 _192_
*470 _193_
*471 _194_
*472 _195_
*473 _196_
*474 _197_
*475 _198_
*476 _199_
*477 _200_
*478 _201_
*479 _202_
*480 _203_
*481 _204_
*482 _205_
*483 _206_
*484 _207_
*485 _208_
*486 _209_
*487 _210_
*488 _211_
*489 _212_
*490 _213_
*491 _214_
*492 _215_
*493 _216_
*494 _217_
*495 _218_
*496 _219_
*497 _220_
*498 _221_
*499 _222_
*500 _223_
*501 _224_
*502 _225_
*503 _226_
*504 _227_
*505 _228_
*506 _229_
*507 _230_
*508 _231_
*509 _232_
*510 _233_
*511 _234_
*512 _235_
*513 _236_
*514 _237_
*515 _238_
*516 _239_
*517 _240_
*518 _241_
*519 _242_
*520 _243_
*521 _244_
*522 _245_
*523 _246_
*524 _247_
*525 _248_
*526 _249_
*527 _250_
*528 _251_
*529 _252_
*530 _253_
*531 _254_
*532 _255_
*533 _256_
*534 _257_
*535 _258_
*536 _259_
*537 _260_
*538 _261_
*539 _262_
*540 _263_
*541 _264_
*542 _265_
*543 _266_
*544 _267_
*545 _268_
*546 _269_
*547 _270_
*548 _271_
*549 _272_
*550 _273_
*551 _274_
*552 _275_
*553 _276_
*554 _277_
*555 _278_
*556 _279_
*557 _280_
*558 _281_
*559 _282_
*560 _283_
*561 _284_
*562 _285_
*563 _286_
*564 _287_
*565 _288_
*566 _289_
*567 _290_
*568 _291_
*569 _292_
*570 _293_
*571 _294_
*572 _295_
*573 _296_
*574 _297_
*575 _298_
*576 _299_
*577 _300_
*578 _301_
*579 clkbuf_0_clk
*580 clkbuf_1_0__f_clk
*581 clkbuf_1_1__f_clk
*582 clkload0
*583 fanout54
*584 fanout55
*585 fanout56
*586 fanout57
*587 fanout58
*588 fanout59
*589 fanout60
*590 fanout61
*591 fanout62
*592 fanout63
*593 fanout64
*594 fanout65
*595 fanout66
*596 fanout67
*597 fanout68
*598 fanout69
*599 fanout70
*600 fanout71
*601 fanout72
*602 fanout73
*603 fanout74
*604 fanout75
*605 fanout76
*606 fanout77
*607 fanout78
*608 hold1
*609 hold10
*610 hold11
*611 hold12
*612 hold13
*613 hold2
*614 hold3
*615 hold4
*616 hold5
*617 hold6
*618 hold7
*619 hold8
*620 hold9
*621 input1
*622 output10
*623 output11
*624 output12
*625 output13
*626 output14
*627 output15
*628 output16
*629 output17
*630 output18
*631 output19
*632 output2
*633 output20
*634 output21
*635 output22
*636 output23
*637 output24
*638 output25
*639 output26
*640 output27
*641 output28
*642 output29
*643 output3
*644 output30
*645 output31
*646 output32
*647 output33
*648 output34
*649 output35
*650 output36
*651 output4
*652 output5
*653 output6
*654 output7
*655 output8
*656 output9

*PORTS
clk I
rst I
sign O
signB O
sine_out[0] O
sine_out[10] O
sine_out[11] O
sine_out[12] O
sine_out[13] O
sine_out[14] O
sine_out[15] O
sine_out[16] O
sine_out[17] O
sine_out[18] O
sine_out[19] O
sine_out[1] O
sine_out[20] O
sine_out[21] O
sine_out[22] O
sine_out[23] O
sine_out[24] O
sine_out[25] O
sine_out[26] O
sine_out[27] O
sine_out[28] O
sine_out[29] O
sine_out[2] O
sine_out[30] O
sine_out[31] O
sine_out[32] O
sine_out[3] O
sine_out[4] O
sine_out[5] O
sine_out[6] O
sine_out[7] O
sine_out[8] O
sine_out[9] O

*D_NET *3 0.00569326
*CONN
*P clk I
*I *579:A I *D sg13g2_buf_8
*CAP
1 clk 0.00172134
2 *579:A 0
3 *3:15 0.00112529
4 *3:11 0.00284663
5 *3:15 *484:A2 0
6 *3:15 *50:8 0
7 *3:15 *91:10 0
*RES
1 clk *3:11 39.6884 
2 *3:11 *3:15 32.463 
3 *3:15 *579:A 20 
*END

*D_NET *4 0.000732243
*CONN
*P rst I
*I *621:A I *D sg13g2_buf_1
*CAP
1 rst 0.000366122
2 *621:A 0
3 *4:11 0.000366122
*RES
1 rst *4:11 44.1664 
2 *4:11 *621:A 20 
*END

*D_NET *5 0.000722979
*CONN
*P sign O
*I *632:X O *D sg13g2_buf_1
*CAP
1 sign 5.13698e-05
2 *632:X 0.00031012
3 *5:10 0.00036149
*RES
1 *632:X *5:10 43.5329 
2 *5:10 sign 20.4841 
*END

*D_NET *6 0.00246788
*CONN
*P signB O
*I *643:X O *D sg13g2_buf_1
*CAP
1 signB 0.00106047
2 *643:X 0.000173471
3 *6:8 0.00123394
4 signB sine_out[0] 0
*RES
1 *643:X *6:8 42.0806 
2 *6:8 signB 33.2767 
*END

*D_NET *7 0.00521025
*CONN
*P sine_out[0] O
*I *651:X O *D sg13g2_buf_1
*CAP
1 sine_out[0] 0.00260512
2 *651:X 0.00260512
3 sine_out[0] sine_out[1] 0
4 sine_out[0] *646:A 0
5 sine_out[0] *36:10 0
6 sine_out[0] *218:22 0
7 signB sine_out[0] 0
*RES
1 *651:X sine_out[0] 49.1902 
*END

*D_NET *8 0.00200702
*CONN
*P sine_out[10] O
*I *652:X O *D sg13g2_buf_1
*CAP
1 sine_out[10] 0.000931499
2 *652:X 0.000931499
3 sine_out[10] sine_out[11] 0
4 sine_out[10] sine_out[8] 0
5 sine_out[10] sine_out[9] 0
6 sine_out[10] *37:18 0.000144027
*RES
1 *652:X sine_out[10] 26.437 
*END

*D_NET *9 0.0019876
*CONN
*P sine_out[11] O
*I *653:X O *D sg13g2_buf_1
*CAP
1 sine_out[11] 0.00071053
2 *653:X 0.000275569
3 *9:10 0.000986099
4 sine_out[11] sine_out[12] 0
5 *9:10 sine_out[12] 0
6 *9:10 *37:18 0
7 *9:10 *175:12 1.54008e-05
8 *9:10 *175:16 0
9 sine_out[10] sine_out[11] 0
*RES
1 *653:X *9:10 42.3072 
2 *9:10 sine_out[11] 23.7602 
*END

*D_NET *10 0.00203807
*CONN
*P sine_out[12] O
*I *654:X O *D sg13g2_buf_1
*CAP
1 sine_out[12] 0.000902557
2 *654:X 0.000902557
3 sine_out[12] sine_out[13] 0
4 sine_out[12] *552:B 0.000232952
5 sine_out[11] sine_out[12] 0
6 *9:10 sine_out[12] 0
*RES
1 *654:X sine_out[12] 23.3772 
*END

*D_NET *11 0.00164523
*CONN
*P sine_out[13] O
*I *655:X O *D sg13g2_buf_1
*CAP
1 sine_out[13] 0.000822617
2 *655:X 0.000822617
3 sine_out[13] sine_out[14] 0
4 sine_out[13] *633:A 0
5 sine_out[12] sine_out[13] 0
*RES
1 *655:X sine_out[13] 29.27 
*END

*D_NET *12 0.00164749
*CONN
*P sine_out[14] O
*I *656:X O *D sg13g2_buf_1
*CAP
1 sine_out[14] 0.000823747
2 *656:X 0.000823747
3 sine_out[14] sine_out[15] 0
4 sine_out[14] *656:A 0
5 sine_out[13] sine_out[14] 0
*RES
1 *656:X sine_out[14] 29.27 
*END

*D_NET *13 0.00164523
*CONN
*P sine_out[15] O
*I *622:X O *D sg13g2_buf_1
*CAP
1 sine_out[15] 0.000822617
2 *622:X 0.000822617
3 sine_out[15] sine_out[16] 0
4 sine_out[14] sine_out[15] 0
*RES
1 *622:X sine_out[15] 29.27 
*END

*D_NET *14 0.00164523
*CONN
*P sine_out[16] O
*I *623:X O *D sg13g2_buf_1
*CAP
1 sine_out[16] 0.000822617
2 *623:X 0.000822617
3 sine_out[16] sine_out[17] 0
4 sine_out[15] sine_out[16] 0
*RES
1 *623:X sine_out[16] 29.27 
*END

*D_NET *15 0.00164523
*CONN
*P sine_out[17] O
*I *624:X O *D sg13g2_buf_1
*CAP
1 sine_out[17] 0.000822617
2 *624:X 0.000822617
3 sine_out[17] sine_out[18] 0
4 sine_out[16] sine_out[17] 0
*RES
1 *624:X sine_out[17] 29.27 
*END

*D_NET *16 0.00164749
*CONN
*P sine_out[18] O
*I *625:X O *D sg13g2_buf_1
*CAP
1 sine_out[18] 0.000823747
2 *625:X 0.000823747
3 sine_out[18] sine_out[19] 0
4 sine_out[18] *624:A 0
5 sine_out[17] sine_out[18] 0
*RES
1 *625:X sine_out[18] 29.27 
*END

*D_NET *17 0.00163166
*CONN
*P sine_out[19] O
*I *626:X O *D sg13g2_buf_1
*CAP
1 sine_out[19] 0.000815831
2 *626:X 0.000815831
3 sine_out[19] sine_out[20] 0
4 sine_out[19] *66:71 0
5 sine_out[18] sine_out[19] 0
*RES
1 *626:X sine_out[19] 29.27 
*END

*D_NET *18 0.00774931
*CONN
*P sine_out[1] O
*I *627:X O *D sg13g2_buf_1
*CAP
1 sine_out[1] 0.00258219
2 *627:X 5.64571e-05
3 *18:8 0.00263865
4 sine_out[1] sine_out[2] 0
5 sine_out[1] *407:B 0
6 sine_out[1] *459:B 0
7 sine_out[1] *554:B 0
8 sine_out[1] *556:A 0.000371952
9 sine_out[1] *645:A 0
10 sine_out[1] *646:A 0.00037204
11 sine_out[1] *33:12 0
12 sine_out[1] *36:10 0.000759685
13 sine_out[1] *157:8 0
14 sine_out[1] *163:15 0.000176537
15 sine_out[1] *218:22 0.00074389
16 sine_out[1] *235:67 0
17 sine_out[1] *235:74 0
18 sine_out[1] *237:23 4.79124e-05
19 sine_out[1] *237:55 0
20 sine_out[0] sine_out[1] 0
*RES
1 *627:X *18:8 40.5974 
2 *18:8 sine_out[1] 47.1485 
*END

*D_NET *19 0.00167727
*CONN
*P sine_out[20] O
*I *628:X O *D sg13g2_buf_1
*CAP
1 sine_out[20] 0.000830934
2 *628:X 0.000830934
3 sine_out[20] sine_out[21] 0
4 sine_out[20] *175:42 1.54008e-05
5 sine_out[19] sine_out[20] 0
*RES
1 *628:X sine_out[20] 29.373 
*END

*D_NET *20 0.00246064
*CONN
*P sine_out[21] O
*I *629:X O *D sg13g2_buf_1
*CAP
1 sine_out[21] 0.000731874
2 *629:X 0.000325254
3 *20:10 0.00105713
4 sine_out[21] sine_out[22] 0
5 sine_out[21] sine_out[23] 0
6 *20:10 sine_out[24] 0.000111229
7 *20:10 *21:10 0
8 *20:10 *22:12 0.000235153
9 *20:10 *78:23 0
10 *20:10 *193:10 0
11 sine_out[20] sine_out[21] 0
*RES
1 *629:X *20:10 43.8213 
2 *20:10 sine_out[21] 23.8797 
*END

*D_NET *21 0.00220916
*CONN
*P sine_out[22] O
*I *630:X O *D sg13g2_buf_1
*CAP
1 sine_out[22] 0.000459993
2 *630:X 0.000644585
3 *21:10 0.00110458
4 sine_out[22] sine_out[23] 0
5 *21:10 sine_out[24] 0
6 *21:10 sine_out[26] 0
7 sine_out[21] sine_out[22] 0
8 *20:10 *21:10 0
*RES
1 *630:X *21:10 43.9015 
2 *21:10 sine_out[22] 25.2427 
*END

*D_NET *22 0.00281076
*CONN
*P sine_out[23] O
*I *631:X O *D sg13g2_buf_1
*CAP
1 sine_out[23] 0.000760211
2 *631:X 0.000447755
3 *22:12 0.00120797
4 sine_out[23] sine_out[24] 0
5 *22:12 sine_out[26] 0.000111901
6 *22:12 *451:A 0
7 *22:12 *631:A 4.77702e-05
8 *22:12 *24:22 0
9 *22:12 *193:10 0
10 *22:12 *234:14 0
11 *22:12 *234:104 0
12 sine_out[21] sine_out[23] 0
13 sine_out[22] sine_out[23] 0
14 *20:10 *22:12 0.000235153
*RES
1 *631:X *22:12 45.0676 
2 *22:12 sine_out[23] 24.008 
*END

*D_NET *23 0.00606969
*CONN
*P sine_out[24] O
*I *633:X O *D sg13g2_buf_1
*CAP
1 sine_out[24] 0.0019822
2 *633:X 2.62019e-05
3 *23:8 0.0020084
4 sine_out[24] sine_out[25] 0
5 sine_out[24] sine_out[26] 0
6 sine_out[24] *425:A1 0
7 sine_out[24] *446:B 0
8 sine_out[24] *447:A 0
9 sine_out[24] *460:A 0.00014491
10 sine_out[24] *66:71 0.000870618
11 sine_out[24] *175:42 0
12 sine_out[24] *189:14 0
13 sine_out[24] *193:10 0.000926131
14 sine_out[24] *208:14 0
15 sine_out[24] *233:72 0
16 sine_out[24] *237:107 0
17 sine_out[24] *239:43 0
18 *23:8 *208:8 0
19 sine_out[23] sine_out[24] 0
20 *20:10 sine_out[24] 0.000111229
21 *21:10 sine_out[24] 0
*RES
1 *633:X *23:8 40.3193 
2 *23:8 sine_out[24] 42.2068 
*END

*D_NET *24 0.00526675
*CONN
*P sine_out[25] O
*I *634:X O *D sg13g2_buf_1
*CAP
1 sine_out[25] 0.000696446
2 *634:X 0.000112018
3 *24:22 0.00192931
4 *24:10 0.00134488
5 sine_out[25] sine_out[26] 0
6 *24:10 *457:A 7.9225e-05
7 *24:10 *198:22 7.93691e-05
8 *24:10 *213:16 0.000125175
9 *24:10 *221:8 0
10 *24:22 sine_out[26] 0
11 *24:22 sine_out[29] 0
12 *24:22 *434:B1 4.77425e-05
13 *24:22 *451:A 0
14 *24:22 *452:B 0
15 *24:22 *457:A 0.000176252
16 *24:22 *457:B 0.000111568
17 *24:22 *71:38 0
18 *24:22 *189:8 1.54556e-05
19 *24:22 *200:12 0.000501427
20 *24:22 *233:10 0
21 *24:22 *234:8 4.78853e-05
22 sine_out[24] sine_out[25] 0
23 *22:12 *24:22 0
*RES
1 *634:X *24:10 41.133 
2 *24:10 *24:22 32.6243 
3 *24:22 sine_out[25] 47.6941 
*END

*D_NET *25 0.00614349
*CONN
*P sine_out[26] O
*I *635:X O *D sg13g2_buf_1
*CAP
1 sine_out[26] 0.00188886
2 *635:X 0.000298899
3 *25:8 0.00218776
4 sine_out[26] sine_out[27] 0
5 sine_out[26] *412:B 0.000305175
6 sine_out[26] *427:A 0.000434875
7 sine_out[26] *427:B 0
8 sine_out[26] *433:A_N 3.23694e-05
9 sine_out[26] *451:A 0
10 sine_out[26] *487:B 0
11 sine_out[26] *488:B 0
12 sine_out[26] *630:A 0.00014413
13 sine_out[26] *631:A 0
14 sine_out[26] *232:70 0
15 sine_out[26] *239:83 0
16 sine_out[26] *240:18 7.93691e-05
17 *25:8 *485:B 0
18 *25:8 *28:10 0.000660141
19 *25:8 *199:26 0
20 sine_out[24] sine_out[26] 0
21 sine_out[25] sine_out[26] 0
22 *21:10 sine_out[26] 0
23 *22:12 sine_out[26] 0.000111901
24 *24:22 sine_out[26] 0
*RES
1 *635:X *25:8 44.0582 
2 *25:8 sine_out[26] 36.6997 
*END

*D_NET *26 0.00572066
*CONN
*P sine_out[27] O
*I *636:X O *D sg13g2_buf_1
*CAP
1 sine_out[27] 0.000364733
2 *636:X 0.000378735
3 *26:14 0.00192226
4 *26:10 0.00193626
5 sine_out[27] sine_out[28] 0
6 *26:10 sine_out[31] 7.9225e-05
7 *26:10 *27:10 0.000600659
8 *26:10 *256:98 0
9 *26:14 *27:14 0
10 *26:14 *71:32 0.000438795
11 *26:14 *239:71 0
12 sine_out[26] sine_out[27] 0
*RES
1 *636:X *26:10 44.3466 
2 *26:10 *26:14 38.0559 
3 *26:14 sine_out[27] 44.1612 
*END

*D_NET *27 0.00558723
*CONN
*P sine_out[28] O
*I *637:X O *D sg13g2_buf_1
*CAP
1 sine_out[28] 0.000352178
2 *637:X 0.000272577
3 *27:14 0.00194599
4 *27:10 0.00186639
5 sine_out[28] sine_out[29] 0
6 *27:10 sine_out[32] 0
7 *27:10 *200:20 0.00054943
8 *27:10 *201:8 0
9 *27:10 *256:98 0
10 *27:14 *30:12 0
11 *27:14 *71:32 0
12 sine_out[27] sine_out[28] 0
13 *26:10 *27:10 0.000600659
14 *26:14 *27:14 0
*RES
1 *637:X *27:10 44.1303 
2 *27:10 *27:14 25.3362 
3 *27:14 sine_out[28] 44.1612 
*END

*D_NET *28 0.00626496
*CONN
*P sine_out[29] O
*I *638:X O *D sg13g2_buf_1
*CAP
1 sine_out[29] 0.0019091
2 *638:X 0.000660499
3 *28:10 0.00256959
4 sine_out[29] sine_out[30] 0
5 sine_out[29] sine_out[31] 0
6 sine_out[29] *590:A 0.000273969
7 sine_out[29] *592:A 0
8 sine_out[29] *200:12 0
9 sine_out[29] *233:10 0
10 sine_out[29] *235:10 0
11 sine_out[29] *238:8 0.000144142
12 sine_out[29] *239:12 0
13 *28:10 *638:A 4.75151e-05
14 *28:10 *92:14 0
15 *28:10 *199:26 0
16 *28:10 *204:18 0
17 *28:10 *238:18 0
18 sine_out[28] sine_out[29] 0
19 *24:22 sine_out[29] 0
20 *25:8 *28:10 0.000660141
*RES
1 *638:X *28:10 47.3439 
2 *28:10 sine_out[29] 39.8378 
*END

*D_NET *29 0.00361204
*CONN
*P sine_out[2] O
*I *639:X O *D sg13g2_buf_1
*CAP
1 sine_out[2] 0.000783374
2 *639:X 0
3 *29:10 0.00180602
4 *29:6 0.00102265
5 sine_out[2] sine_out[3] 0
6 sine_out[2] *554:B 0
7 *29:10 *79:28 0
8 *29:10 *142:14 0
9 *29:10 *208:14 0
10 *29:10 *241:23 0
11 sine_out[1] sine_out[2] 0
*RES
1 *639:X *29:6 40 
2 *29:6 *29:10 32.4321 
3 *29:10 sine_out[2] 48.6211 
*END

*D_NET *30 0.00496832
*CONN
*P sine_out[30] O
*I *640:X O *D sg13g2_buf_1
*CAP
1 sine_out[30] 0.000422353
2 *640:X 9.34963e-05
3 *30:12 0.00215587
4 *30:8 0.00182702
5 sine_out[30] sine_out[31] 0
6 *30:8 *204:38 0.000341204
7 *30:8 *232:44 0
8 *30:8 *248:66 0.00012838
9 sine_out[29] sine_out[30] 0
10 *27:14 *30:12 0
*RES
1 *640:X *30:8 41.5862 
2 *30:8 *30:12 41.3004 
3 *30:12 sine_out[30] 43.8356 
*END

*D_NET *31 0.00811512
*CONN
*P sine_out[31] O
*I *641:X O *D sg13g2_buf_1
*CAP
1 sine_out[31] 0.00216529
2 *641:X 0.00098056
3 *31:8 0.00314585
4 sine_out[31] sine_out[32] 0
5 sine_out[31] *590:A 0
6 sine_out[31] *52:10 0
7 sine_out[31] *54:8 0.000500551
8 sine_out[31] *54:17 0.000583539
9 sine_out[31] *54:24 0
10 sine_out[31] *184:33 0
11 sine_out[31] *200:20 8.00842e-05
12 *31:8 sine_out[32] 0
13 *31:8 *611:A 0.000499797
14 *31:8 *641:A 0
15 *31:8 *32:10 0
16 *31:8 *184:33 0
17 *31:8 *204:38 8.02269e-05
18 sine_out[29] sine_out[31] 0
19 sine_out[30] sine_out[31] 0
20 *26:10 sine_out[31] 7.9225e-05
*RES
1 *641:X *31:8 29.167 
2 *31:8 sine_out[31] 20.18 
*END

*D_NET *32 0.00799148
*CONN
*P sine_out[32] O
*I *642:X O *D sg13g2_buf_1
*CAP
1 sine_out[32] 0.00214579
2 *642:X 0.00108122
3 *32:10 0.00322701
4 sine_out[32] *558:A 0.000890753
5 sine_out[32] *52:10 0.00059894
6 sine_out[32] *213:8 0
7 *32:10 *87:12 0
8 *32:10 *184:33 0
9 *32:10 *201:8 0
10 *32:10 *232:44 4.77699e-05
11 sine_out[31] sine_out[32] 0
12 *27:10 sine_out[32] 0
13 *31:8 sine_out[32] 0
14 *31:8 *32:10 0
*RES
1 *642:X *32:10 49.2288 
2 *32:10 sine_out[32] 45.1938 
*END

*D_NET *33 0.00555394
*CONN
*P sine_out[3] O
*I *644:X O *D sg13g2_buf_1
*CAP
1 sine_out[3] 0.00103896
2 *644:X 0.000232774
3 *33:20 0.0015753
4 *33:12 0.000769112
5 sine_out[3] sine_out[4] 0
6 sine_out[3] *416:A2 0.000306196
7 sine_out[3] *554:B 0
8 sine_out[3] *555:B 0.000306196
9 sine_out[3] *158:75 0
10 *33:12 *407:B 1.51e-05
11 *33:12 *645:A 0.000248708
12 *33:12 *35:8 0
13 *33:12 *157:8 0
14 *33:12 *235:74 0
15 *33:20 *408:B 0.000402949
16 *33:20 *413:A_N 4.77702e-05
17 *33:20 *555:B 0.000177042
18 *33:20 *210:10 0
19 *33:20 *237:6 0.000111568
20 *33:20 *237:55 4.77425e-05
21 *33:20 *241:33 0.000274527
22 sine_out[1] *33:12 0
23 sine_out[2] sine_out[3] 0
*RES
1 *644:X *33:12 42.2248 
2 *33:12 *33:20 45.6753 
3 *33:20 sine_out[3] 31.5675 
*END

*D_NET *34 0.0055517
*CONN
*P sine_out[4] O
*I *645:X O *D sg13g2_buf_1
*CAP
1 sine_out[4] 0.00161502
2 *645:X 0.000160213
3 *34:8 0.00177523
4 sine_out[4] sine_out[5] 0.000824546
5 sine_out[4] *416:A2 0
6 sine_out[4] *560:A2 0.000112198
7 sine_out[4] *98:18 0
8 sine_out[4] *158:60 0.000208826
9 sine_out[4] *158:75 8.00842e-05
10 sine_out[4] *241:33 0
11 sine_out[4] *241:103 0
12 sine_out[4] *241:111 0
13 sine_out[4] *247:10 0.000274527
14 *34:8 *534:B1 0
15 *34:8 *645:A 0.000501045
16 sine_out[3] sine_out[4] 0
*RES
1 *645:X *34:8 42.3278 
2 *34:8 sine_out[4] 37.407 
*END

*D_NET *35 0.00518243
*CONN
*P sine_out[5] O
*I *646:X O *D sg13g2_buf_1
*CAP
1 sine_out[5] 0.00159644
2 *646:X 0.000395498
3 *35:8 0.00199194
4 sine_out[5] sine_out[6] 0
5 sine_out[5] sine_out[7] 0
6 sine_out[5] *589:A 0
7 sine_out[5] *39:10 0
8 sine_out[5] *158:19 0
9 sine_out[5] *158:60 0
10 sine_out[5] *158:75 8.00842e-05
11 sine_out[5] *165:10 0
12 sine_out[5] *214:12 0
13 sine_out[5] *241:111 0.000112541
14 *35:8 *645:A 0
15 *35:8 *212:12 0
16 *35:8 *237:36 0
17 *35:8 *237:75 0.000181387
18 sine_out[4] sine_out[5] 0.000824546
19 *33:12 *35:8 0
*RES
1 *646:X *35:8 43.5638 
2 *35:8 sine_out[5] 36.995 
*END

*D_NET *36 0.00349309
*CONN
*P sine_out[6] O
*I *647:X O *D sg13g2_buf_1
*CAP
1 sine_out[6] 0.000821733
2 *647:X 0.000544967
3 *36:10 0.0013667
4 sine_out[6] sine_out[7] 0
5 sine_out[0] *36:10 0
6 sine_out[1] *36:10 0.000759685
7 sine_out[5] sine_out[6] 0
*RES
1 *647:X *36:10 46.077 
2 *36:10 sine_out[6] 29.4554 
*END

*D_NET *37 0.00473999
*CONN
*P sine_out[7] O
*I *648:X O *D sg13g2_buf_1
*CAP
1 sine_out[7] 0.000720793
2 *648:X 0.000233039
3 *37:18 0.00163792
4 *37:10 0.00115016
5 sine_out[7] sine_out[8] 0
6 sine_out[7] *39:10 0
7 *37:10 *438:A 0
8 *37:10 *79:20 0
9 *37:10 *166:42 7.51285e-05
10 *37:10 *209:10 0
11 *37:10 *212:12 7.30101e-05
12 *37:18 sine_out[8] 0
13 *37:18 *422:B 0.000208035
14 *37:18 *489:B 0.000208035
15 *37:18 *652:A 0
16 *37:18 *653:A 4.77702e-05
17 *37:18 *175:16 0
18 *37:18 *181:8 0
19 *37:18 *209:10 0
20 *37:18 *213:16 0
21 *37:18 *230:89 0.000242071
22 *37:18 *237:107 0
23 sine_out[10] *37:18 0.000144027
24 sine_out[5] sine_out[7] 0
25 sine_out[6] sine_out[7] 0
26 *9:10 *37:18 0
*RES
1 *648:X *37:10 42.1527 
2 *37:10 *37:18 48.8889 
3 *37:18 sine_out[7] 24.4994 
*END

*D_NET *38 0.00341138
*CONN
*P sine_out[8] O
*I *649:X O *D sg13g2_buf_1
*CAP
1 sine_out[8] 0.00127816
2 *649:X 0.00127816
3 sine_out[8] sine_out[9] 0
4 sine_out[8] *422:B 0
5 sine_out[8] *652:A 0.000207671
6 sine_out[8] *39:10 0.00064738
7 sine_out[8] *181:8 0
8 sine_out[8] *209:10 0
9 sine_out[8] *213:16 0
10 sine_out[8] *258:10 0
11 sine_out[10] sine_out[8] 0
12 sine_out[7] sine_out[8] 0
13 *37:18 sine_out[8] 0
*RES
1 *649:X sine_out[8] 29.3266 
*END

*D_NET *39 0.00256177
*CONN
*P sine_out[9] O
*I *650:X O *D sg13g2_buf_1
*CAP
1 sine_out[9] 0.000407663
2 *650:X 0.000549534
3 *39:10 0.000957197
4 sine_out[10] sine_out[9] 0
5 sine_out[5] *39:10 0
6 sine_out[7] *39:10 0
7 sine_out[8] sine_out[9] 0
8 sine_out[8] *39:10 0.00064738
*RES
1 *650:X *39:10 45.768 
2 *39:10 sine_out[9] 24.5938 
*END

*D_NET *40 0.000502655
*CONN
*I *578:D I *D sg13g2_dfrbpq_1
*I *496:Y O *D sg13g2_inv_1
*CAP
1 *578:D 0
2 *496:Y 0.000251327
3 *40:8 0.000251327
4 *40:8 *253:10 0
*RES
1 *496:Y *40:8 43.3166 
2 *40:8 *578:D 40 
*END

*D_NET *41 0.000737936
*CONN
*I *613:A I *D sg13g2_dlygate4sd3_1
*I *491:Y O *D sg13g2_xnor2_1
*CAP
1 *613:A 0
2 *491:Y 0.00020049
3 *41:10 0.00020049
4 *41:10 *491:B 0.00020871
5 *41:10 *577:D 0
6 *41:10 *196:34 0.000128247
*RES
1 *491:Y *41:10 41.9982 
2 *41:10 *613:A 40 
*END

*D_NET *42 0.00125878
*CONN
*I *620:A I *D sg13g2_dlygate4sd3_1
*I *578:Q O *D sg13g2_dfrbpq_1
*CAP
1 *620:A 0
2 *578:Q 0.000613959
3 *42:10 0.000613959
4 *42:10 *585:A 1.54008e-05
5 *42:10 *65:10 0
6 *42:10 *88:14 0
7 *42:10 *185:10 0
8 *42:10 *232:8 1.54556e-05
9 *42:10 *253:10 0
10 *42:10 *256:38 0
11 *42:10 *256:53 0
*RES
1 *578:Q *42:10 45.9225 
2 *42:10 *620:A 40 
*END

*D_NET *43 0.000567074
*CONN
*I *614:A I *D sg13g2_dlygate4sd3_1
*I *570:Q O *D sg13g2_dfrbpq_2
*CAP
1 *614:A 0.000243424
2 *570:Q 0.000243424
3 *614:A *207:10 8.02267e-05
4 *614:A *253:27 0
*RES
1 *570:Q *614:A 42.4308 
*END

*D_NET *44 0.000649971
*CONN
*I *615:A I *D sg13g2_dlygate4sd3_1
*I *571:Q O *D sg13g2_dfrbpq_1
*CAP
1 *615:A 0.000324985
2 *571:Q 0.000324985
3 *615:A *585:A 0
4 *615:A *86:29 0
5 *615:A *219:10 0
*RES
1 *571:Q *615:A 43.7286 
*END

*D_NET *45 0.00161152
*CONN
*I *571:D I *D sg13g2_dfrbpq_1
*I *469:Y O *D sg13g2_xnor2_1
*CAP
1 *571:D 0.000323248
2 *469:Y 0.000378437
3 *45:8 0.000701685
4 *571:D *405:A 0
5 *571:D *616:A 0
6 *571:D *183:10 0.00020815
7 *571:D *231:79 0
8 *571:D *255:23 0
9 *45:8 *470:B1 0
10 *45:8 *255:23 0
*RES
1 *469:Y *45:8 43.3166 
2 *45:8 *571:D 43.1312 
*END

*D_NET *46 0.00285846
*CONN
*I *610:A I *D sg13g2_dlygate4sd3_1
*I *601:A I *D sg13g2_buf_8
*I *572:Q O *D sg13g2_dfrbpq_2
*CAP
1 *610:A 0.000146946
2 *601:A 0.00024066
3 *572:Q 0.000477092
4 *46:8 0.000864698
5 *601:A *184:26 0
6 *601:A *204:18 0.000209756
7 *601:A *204:26 0.000181192
8 *601:A *253:71 0
9 *610:A *94:10 8.00842e-05
10 *610:A *232:51 8.00842e-05
11 *610:A *244:27 0.00012816
12 *46:8 *479:A 0
13 *46:8 *88:27 0.000272789
14 *46:8 *204:26 0.000176999
15 *46:8 *232:8 0
16 *46:8 *244:19 0
17 *46:8 *256:92 0
*RES
1 *572:Q *46:8 44.429 
2 *46:8 *601:A 42.7398 
3 *46:8 *610:A 41.6274 
*END

*D_NET *47 0.000743313
*CONN
*I *572:D I *D sg13g2_dfrbpq_2
*I *473:X O *D sg13g2_xor2_1
*CAP
1 *572:D 0.000363965
2 *473:X 0.000363965
3 *572:D *473:B 0
4 *572:D *572:RESET_B 1.53835e-05
5 *572:D *56:23 0
6 *572:D *205:20 0
7 *572:D *231:79 0
*RES
1 *473:X *572:D 43.6771 
*END

*D_NET *48 0.00118697
*CONN
*I *611:A I *D sg13g2_dlygate4sd3_1
*I *573:Q O *D sg13g2_dfrbpq_1
*CAP
1 *611:A 0.000343587
2 *573:Q 0.000343587
3 *31:8 *611:A 0.000499797
*RES
1 *573:Q *611:A 44.0479 
*END

*D_NET *49 0.00215028
*CONN
*I *573:D I *D sg13g2_dfrbpq_1
*I *477:X O *D sg13g2_xor2_1
*CAP
1 *573:D 0.000394712
2 *477:X 0.000150542
3 *49:8 0.000545254
4 *573:D *476:A 0
5 *573:D *478:B 0.000143351
6 *573:D *484:A1 0
7 *573:D *574:RESET_B 0
8 *573:D *574:D 0
9 *573:D *231:21 0
10 *49:8 *232:14 0.00034079
11 *49:8 *248:14 0.000394248
12 *49:8 *248:20 0.000181385
*RES
1 *477:X *49:8 42.575 
2 *49:8 *573:D 43.914 
*END

*D_NET *50 0.00200563
*CONN
*I *597:A I *D sg13g2_buf_1
*I *574:Q O *D sg13g2_dfrbpq_1
*CAP
1 *597:A 0.000314052
2 *574:Q 0.000302638
3 *50:8 0.00061669
4 *597:A *573:CLK 0.000240998
5 *597:A *87:12 0
6 *597:A *91:10 0.000531249
7 *3:15 *50:8 0
*RES
1 *574:Q *50:8 43.3166 
2 *50:8 *597:A 43.5638 
*END

*D_NET *51 0.000492048
*CONN
*I *574:D I *D sg13g2_dfrbpq_1
*I *481:X O *D sg13g2_xor2_1
*CAP
1 *574:D 0.00015801
2 *481:X 0.00015801
3 *574:D *481:B 0.000176028
4 *573:D *574:D 0
*RES
1 *481:X *574:D 41.5347 
*END

*D_NET *52 0.00549882
*CONN
*I *590:A I *D sg13g2_buf_2
*I *612:A I *D sg13g2_dlygate4sd3_1
*I *575:Q O *D sg13g2_dfrbpq_1
*CAP
1 *590:A 0.000716702
2 *612:A 0.000377467
3 *575:Q 0.000486848
4 *52:10 0.00158102
5 *590:A *238:8 0
6 *612:A *96:8 0
7 *612:A *198:22 0.00020871
8 *612:A *198:30 0
9 *612:A *213:16 0.000652615
10 *612:A *235:20 0.00020871
11 *612:A *238:18 0
12 *52:10 *54:8 0
13 *52:10 *213:16 0.000393844
14 *52:10 *240:6 0
15 sine_out[29] *590:A 0.000273969
16 sine_out[31] *590:A 0
17 sine_out[31] *52:10 0
18 sine_out[32] *52:10 0.00059894
*RES
1 *575:Q *52:10 46.077 
2 *52:10 *612:A 44.4702 
3 *52:10 *590:A 46.592 
*END

*D_NET *53 0.00125031
*CONN
*I *575:D I *D sg13g2_dfrbpq_1
*I *485:X O *D sg13g2_xor2_1
*CAP
1 *575:D 0.000224581
2 *485:X 7.37548e-05
3 *53:8 0.000298336
4 *575:D *482:A 8.00842e-05
5 *575:D *485:A 4.77425e-05
6 *575:D *93:14 0
7 *575:D *232:51 0
8 *575:D *232:70 0
9 *575:D *240:18 0.000291496
10 *53:8 *184:26 0
11 *53:8 *232:44 0
12 *53:8 *256:98 0.000234311
*RES
1 *485:X *53:8 41.0918 
2 *53:8 *575:D 42.4823 
*END

*D_NET *54 0.00461159
*CONN
*I *586:A I *D sg13g2_buf_8