*SPEF "ieee 1481-1999"
*DESIGN "DigitalSine"
*DATE "17:18:26 Friday December 12, 2025"
*VENDOR "The OpenROAD Project"
*PROGRAM "OpenROAD"
*VERSION "341650e72dad0dc8571822ff8c5d9c5e365327f7"
*DESIGN_FLOW "NAME_SCOPE LOCAL" "PIN_CAP NONE"
*DIVIDER /
*DELIMITER :
*BUS_DELIMITER []
*T_UNIT 1 NS
*C_UNIT 1 PF
*R_UNIT 1 OHM
*L_UNIT 1 HENRY

*NAME_MAP
*3 clk
*4 rst
*5 sign
*6 signB
*7 sine_out[0]
*8 sine_out[10]
*9 sine_out[11]
*10 sine_out[12]
*11 sine_out[13]
*12 sine_out[14]
*13 sine_out[15]
*14 sine_out[16]
*15 sine_out[17]
*16 sine_out[18]
*17 sine_out[19]
*18 sine_out[1]
*19 sine_out[20]
*20 sine_out[21]
*21 sine_out[22]
*22 sine_out[23]
*23 sine_out[24]
*24 sine_out[25]
*25 sine_out[26]
*26 sine_out[27]
*27 sine_out[28]
*28 sine_out[29]
*29 sine_out[2]
*30 sine_out[30]
*31 sine_out[31]
*32 sine_out[32]
*33 sine_out[3]
*34 sine_out[4]
*35 sine_out[5]
*36 sine_out[6]
*37 sine_out[7]
*38 sine_out[8]
*39 sine_out[9]
*40 CTRL\.P0
*41 CTRL\.P1
*42 CTRL\.S0
*43 DPATH\.SUM\.Cout0
*44 DPATH\.SUM\.fa_1\.A
*45 DPATH\.SUM\.fa_1\.S
*46 DPATH\.SUM\.fa_2\.A
*47 DPATH\.SUM\.fa_2\.S
*48 DPATH\.SUM\.fa_3\.A
*49 DPATH\.SUM\.fa_3\.S
*50 DPATH\.SUM\.fa_4\.A
*51 DPATH\.SUM\.fa_4\.S
*52 DPATH\.SUM\.fa_5\.A
*53 DPATH\.SUM\.fa_5\.S
*54 DPATH\.SUM\.fa_6\.A
*55 DPATH\.SUM\.fa_6\.S
*56 DPATH\.SUM\.ha_0\.S
*57 _000_
*58 _001_
*59 _002_
*60 _003_
*61 _004_
*62 _005_
*63 _006_
*64 _007_
*65 _008_
*66 _009_
*67 _010_
*68 _011_
*69 _012_
*70 _013_
*71 _014_
*72 _015_
*73 _016_
*74 _017_
*75 _018_
*76 _019_
*77 _020_
*78 _021_
*79 _022_
*80 _023_
*81 _024_
*82 _025_
*83 _026_
*84 _027_
*85 _028_
*86 _029_
*87 _030_
*88 _031_
*89 _032_
*90 _033_
*91 _034_
*92 _035_
*93 _036_
*94 _037_
*95 _038_
*96 _039_
*97 _040_
*98 _041_
*99 _042_
*100 _043_
*101 _044_
*102 _045_
*103 _046_
*104 _047_
*105 _048_
*106 _049_
*107 _050_
*108 _051_
*109 _052_
*110 _053_
*111 _054_
*112 _055_
*113 _056_
*114 _057_
*115 _058_
*116 _059_
*117 _060_
*118 _061_
*119 _062_
*120 _063_
*121 _064_
*122 _065_
*123 _066_
*124 _067_
*125 _068_
*126 _069_
*127 _070_
*128 _071_
*129 _072_
*130 _073_
*131 _074_
*132 _075_
*133 _076_
*134 _077_
*135 _078_
*136 _079_
*137 _080_
*138 _081_
*139 _082_
*140 _083_
*141 _084_
*142 _085_
*143 _086_
*144 _087_
*145 _088_
*146 _089_
*147 _090_
*148 _091_
*149 _092_
*150 _093_
*151 _094_
*152 _095_
*153 _096_
*154 _097_
*155 _098_
*156 _099_
*157 _100_
*158 _101_
*159 _102_
*160 _103_
*161 _104_
*162 _105_
*163 _106_
*164 _107_
*165 _108_
*166 _109_
*167 _110_
*168 _111_
*169 _112_
*170 _113_
*171 _114_
*172 _115_
*173 _116_
*174 _117_
*175 _118_
*176 _119_
*177 _120_
*178 _121_
*179 _122_
*180 _123_
*181 _124_
*182 clknet_0_clk
*183 clknet_1_0__leaf_clk
*184 clknet_1_1__leaf_clk
*185 net1
*186 net10
*187 net11
*188 net12
*189 net13
*190 net14
*191 net15
*192 net16
*193 net17
*194 net18
*195 net19
*196 net2
*197 net20
*198 net21
*199 net22
*200 net23
*201 net24
*202 net25
*203 net26
*204 net27
*205 net28
*206 net29
*207 net3
*208 net30
*209 net31
*210 net32
*211 net33
*212 net34
*213 net35
*214 net36
*215 net37
*216 net38
*217 net39
*218 net4
*219 net40
*220 net41
*221 net42
*222 net43
*223 net44
*224 net45
*225 net46
*226 net5
*227 net56
*228 net57
*229 net58
*230 net59
*231 net6
*232 net60
*233 net61
*234 net62
*235 net63
*236 net64
*237 net65
*238 net66
*239 net67
*240 net68
*241 net69
*242 net7
*243 net70
*244 net71
*245 net72
*246 net73
*247 net74
*248 net75
*249 net76
*250 net77
*251 net78
*252 net79
*253 net8
*254 net80
*255 net9
*256 FILLER_0_0
*257 FILLER_0_105
*258 FILLER_0_112
*259 FILLER_0_119
*260 FILLER_0_126
*261 FILLER_0_133
*262 FILLER_0_14
*263 FILLER_0_140
*264 FILLER_0_147
*265 FILLER_0_154
*266 FILLER_0_161
*267 FILLER_0_165
*268 FILLER_0_21
*269 FILLER_0_28
*270 FILLER_0_35
*271 FILLER_0_42
*272 FILLER_0_49
*273 FILLER_0_56
*274 FILLER_0_63
*275 FILLER_0_7
*276 FILLER_0_70
*277 FILLER_0_77
*278 FILLER_0_84
*279 FILLER_0_91
*280 FILLER_0_98
*281 FILLER_10_0
*282 FILLER_10_106
*283 FILLER_10_108
*284 FILLER_10_142
*285 FILLER_10_149
*286 FILLER_10_165
*287 FILLER_10_36
*288 FILLER_10_43
*289 FILLER_10_50
*290 FILLER_10_57
*291 FILLER_10_64
*292 FILLER_10_7
*293 FILLER_10_70
*294 FILLER_10_77
*295 FILLER_10_84
*296 FILLER_10_99
*297 FILLER_11_0
*298 FILLER_11_105
*299 FILLER_11_11
*300 FILLER_11_112
*301 FILLER_11_132
*302 FILLER_11_139
*303 FILLER_11_143
*304 FILLER_11_147
*305 FILLER_11_154
*306 FILLER_11_161
*307 FILLER_11_165
*308 FILLER_11_21
*309 FILLER_11_30
*310 FILLER_11_46
*311 FILLER_11_53
*312 FILLER_11_55
*313 FILLER_11_69
*314 FILLER_11_7
*315 FILLER_11_71
*316 FILLER_11_98
*317 FILLER_12_0
*318 FILLER_12_105
*319 FILLER_12_112
*320 FILLER_12_137
*321 FILLER_12_165
*322 FILLER_12_45
*323 FILLER_12_52
*324 FILLER_12_57
*325 FILLER_12_64
*326 FILLER_12_7
*327 FILLER_12_71
*328 FILLER_12_79
*329 FILLER_12_86
*330 FILLER_12_93
*331 FILLER_13_0
*332 FILLER_13_103
*333 FILLER_13_110
*334 FILLER_13_117
*335 FILLER_13_126
*336 FILLER_13_136
*337 FILLER_13_14
*338 FILLER_13_143
*339 FILLER_13_150
*340 FILLER_13_157
*341 FILLER_13_164
*342 FILLER_13_26
*343 FILLER_13_38
*344 FILLER_13_42
*345 FILLER_13_55
*346 FILLER_13_62
*347 FILLER_13_69
*348 FILLER_13_7
*349 FILLER_13_76
*350 FILLER_13_78
*351 FILLER_13_84
*352 FILLER_13_90
*353 FILLER_13_97
*354 FILLER_14_0
*355 FILLER_14_102
*356 FILLER_14_104
*357 FILLER_14_109
*358 FILLER_14_116
*359 FILLER_14_123
*360 FILLER_14_130
*361 FILLER_14_14
*362 FILLER_14_155
*363 FILLER_14_27
*364 FILLER_14_29
*365 FILLER_14_34
*366 FILLER_14_41
*367 FILLER_14_7
*368 FILLER_14_76
*369 FILLER_14_87
*370 FILLER_14_91
*371 FILLER_14_97
*372 FILLER_15_0
*373 FILLER_15_103
*374 FILLER_15_110
*375 FILLER_15_117
*376 FILLER_15_124
*377 FILLER_15_136
*378 FILLER_15_14
*379 FILLER_15_165
*380 FILLER_15_36
*381 FILLER_15_43
*382 FILLER_15_50
*383 FILLER_15_57
*384 FILLER_15_65
*385 FILLER_15_67
*386 FILLER_15_7
*387 FILLER_15_72
*388 FILLER_15_77
*389 FILLER_15_89
*390 FILLER_15_95
*391 FILLER_16_0
*392 FILLER_16_101
*393 FILLER_16_108
*394 FILLER_16_11
*395 FILLER_16_115
*396 FILLER_16_119
*397 FILLER_16_142
*398 FILLER_16_149
*399 FILLER_16_156
*400 FILLER_16_163
*401 FILLER_16_165
*402 FILLER_16_24
*403 FILLER_16_38
*404 FILLER_16_45
*405 FILLER_16_52
*406 FILLER_16_58
*407 FILLER_16_62
*408 FILLER_16_67
*409 FILLER_16_7
*410 FILLER_16_74
*411 FILLER_16_78
*412 FILLER_16_95
*413 FILLER_17_0
*414 FILLER_17_113
*415 FILLER_17_115
*416 FILLER_17_124
*417 FILLER_17_148
*418 FILLER_17_162
*419 FILLER_17_24
*420 FILLER_17_26
*421 FILLER_17_35
*422 FILLER_17_42
*423 FILLER_17_49
*424 FILLER_17_56
*425 FILLER_17_63
*426 FILLER_17_7
*427 FILLER_17_72
*428 FILLER_17_79
*429 FILLER_18_0
*430 FILLER_18_104
*431 FILLER_18_136
*432 FILLER_18_165
*433 FILLER_18_30
*434 FILLER_18_41
*435 FILLER_18_45
*436 FILLER_18_59
*437 FILLER_18_61
*438 FILLER_18_66
*439 FILLER_18_7
*440 FILLER_18_73
*441 FILLER_18_97
*442 FILLER_19_0
*443 FILLER_19_113
*444 FILLER_19_120
*445 FILLER_19_156
*446 FILLER_19_160
*447 FILLER_19_26
*448 FILLER_19_33
*449 FILLER_19_51
*450 FILLER_19_65
*451 FILLER_19_7
*452 FILLER_19_96
*453 FILLER_1_0
*454 FILLER_1_105
*455 FILLER_1_112
*456 FILLER_1_119
*457 FILLER_1_126
*458 FILLER_1_133
*459 FILLER_1_14
*460 FILLER_1_140
*461 FILLER_1_147
*462 FILLER_1_154
*463 FILLER_1_161
*464 FILLER_1_165
*465 FILLER_1_21
*466 FILLER_1_28
*467 FILLER_1_35
*468 FILLER_1_42
*469 FILLER_1_49
*470 FILLER_1_56
*471 FILLER_1_63
*472 FILLER_1_7
*473 FILLER_1_70
*474 FILLER_1_77
*475 FILLER_1_84
*476 FILLER_1_91
*477 FILLER_1_98
*478 FILLER_20_0
*479 FILLER_20_164
*480 FILLER_20_51
*481 FILLER_20_56
*482 FILLER_2_0
*483 FILLER_2_105
*484 FILLER_2_112
*485 FILLER_2_119
*486 FILLER_2_126
*487 FILLER_2_133
*488 FILLER_2_14
*489 FILLER_2_140
*490 FILLER_2_147
*491 FILLER_2_154
*492 FILLER_2_161
*493 FILLER_2_165
*494 FILLER_2_21
*495 FILLER_2_28
*496 FILLER_2_35
*497 FILLER_2_42
*498 FILLER_2_49
*499 FILLER_2_56
*500 FILLER_2_63
*501 FILLER_2_7
*502 FILLER_2_70
*503 FILLER_2_77
*504 FILLER_2_84
*505 FILLER_2_91
*506 FILLER_2_98
*507 FILLER_3_0
*508 FILLER_3_104
*509 FILLER_3_111
*510 FILLER_3_118
*511 FILLER_3_125
*512 FILLER_3_132
*513 FILLER_3_139
*514 FILLER_3_14
*515 FILLER_3_146
*516 FILLER_3_153
*517 FILLER_3_160
*518 FILLER_3_164
*519 FILLER_3_21
*520 FILLER_3_28
*521 FILLER_3_35
*522 FILLER_3_42
*523 FILLER_3_49
*524 FILLER_3_56
*525 FILLER_3_63
*526 FILLER_3_7
*527 FILLER_3_70
*528 FILLER_3_77
*529 FILLER_3_82
*530 FILLER_3_89
*531 FILLER_4_0
*532 FILLER_4_109
*533 FILLER_4_116
*534 FILLER_4_133
*535 FILLER_4_137
*536 FILLER_4_14
*537 FILLER_4_147
*538 FILLER_4_154
*539 FILLER_4_161
*540 FILLER_4_165
*541 FILLER_4_21
*542 FILLER_4_28
*543 FILLER_4_35
*544 FILLER_4_42
*545 FILLER_4_49
*546 FILLER_4_56
*547 FILLER_4_63
*548 FILLER_4_65
*549 FILLER_4_7
*550 FILLER_4_70
*551 FILLER_4_99
*552 FILLER_5_0
*553 FILLER_5_105
*554 FILLER_5_112
*555 FILLER_5_14
*556 FILLER_5_149
*557 FILLER_5_156
*558 FILLER_5_163
*559 FILLER_5_165
*560 FILLER_5_21
*561 FILLER_5_28
*562 FILLER_5_35
*563 FILLER_5_42
*564 FILLER_5_49
*565 FILLER_5_56
*566 FILLER_5_63
*567 FILLER_5_7
*568 FILLER_5_70
*569 FILLER_5_77
*570 FILLER_5_84
*571 FILLER_5_91
*572 FILLER_5_98
*573 FILLER_6_0
*574 FILLER_6_131
*575 FILLER_6_14
*576 FILLER_6_147
*577 FILLER_6_154
*578 FILLER_6_161
*579 FILLER_6_18
*580 FILLER_6_36
*581 FILLER_6_38
*582 FILLER_6_43
*583 FILLER_6_50
*584 FILLER_6_54
*585 FILLER_6_63
*586 FILLER_6_7
*587 FILLER_6_98
*588 FILLER_7_0
*589 FILLER_7_100
*590 FILLER_7_104
*591 FILLER_7_118
*592 FILLER_7_165
*593 FILLER_7_26
*594 FILLER_7_38
*595 FILLER_7_44
*596 FILLER_7_55
*597 FILLER_7_57
*598 FILLER_7_66
*599 FILLER_7_7
*600 FILLER_7_86
*601 FILLER_7_93
*602 FILLER_8_0
*603 FILLER_8_115
*604 FILLER_8_164
*605 FILLER_8_20
*606 FILLER_8_39
*607 FILLER_8_41
*608 FILLER_8_46
*609 FILLER_8_53
*610 FILLER_8_60
*611 FILLER_8_67
*612 FILLER_8_7
*613 FILLER_8_74
*614 FILLER_9_0
*615 FILLER_9_101
*616 FILLER_9_112
*617 FILLER_9_118
*618 FILLER_9_125
*619 FILLER_9_132
*620 FILLER_9_136
*621 FILLER_9_14
*622 FILLER_9_16
*623 FILLER_9_164
*624 FILLER_9_26
*625 FILLER_9_33
*626 FILLER_9_40
*627 FILLER_9_52
*628 FILLER_9_59
*629 FILLER_9_66
*630 FILLER_9_7
*631 FILLER_9_73
*632 FILLER_9_80
*633 FILLER_9_84
*634 FILLER_9_90
*635 FILLER_9_97
*636 _125_
*637 _126_
*638 _127_
*639 _128_
*640 _129_
*641 _130_
*642 _131_
*643 _132_
*644 _133_
*645 _134_
*646 _135_
*647 _136_
*648 _137_
*649 _138_
*650 _139_
*651 _140_
*652 _141_
*653 _142_
*654 _143_
*655 _144_
*656 _145_
*657 _146_
*658 _147_
*659 _148_
*660 _149_
*661 _150_
*662 _151_
*663 _152_
*664 _153_
*665 _154_
*666 _155_
*667 _156_
*668 _157_
*669 _158_
*670 _159_
*671 _160_
*672 _161_
*673 _162_
*674 _163_
*675 _164_
*676 _165_
*677 _166_
*678 _167_
*679 _168_
*680 _169_
*681 _170_
*682 _171_
*683 _172_
*684 _173_
*685 _174_
*686 _175_
*687 _176_
*688 _177_
*689 _178_
*690 _179_
*691 _180_
*692 _181_
*693 _182_
*694 _183_
*695 _184_
*696 _185_
*697 _186_
*698 _187_
*699 _188_
*700 _189_
*701 _190_
*702 _191_
*703 _192_
*704 _193_
*705 _194_
*706 _195_
*707 _196_
*708 _197_
*709 _198_
*710 _199_
*711 _200_
*712 _201_
*713 _202_
*714 _203_
*715 _204_
*716 _205_
*717 _206_
*718 _207_
*719 _208_
*720 _209_
*721 _210_
*722 _211_
*723 _212_
*724 _213_
*725 _214_
*726 _215_
*727 _216_
*728 _217_
*729 _218_
*730 _219_
*731 _220_
*732 _221_
*733 _222_
*734 _223_
*735 _224_
*736 _225_
*737 _226_
*738 _227_
*739 _228_
*740 _229_
*741 _230_
*742 _231_
*743 _232_
*744 _233_
*745 _234_
*746 _235_
*747 _236_
*748 _237_
*749 _238_
*750 _239_
*751 _240_
*752 _241_
*753 _242_
*754 _243_
*755 _244_
*756 _245_
*757 _246_
*758 _247_
*759 _248_
*760 _249_
*761 _250_
*762 _251_
*763 _252_
*764 _253_
*765 _254_
*766 _255_
*767 _256_
*768 _257_
*769 _258_
*770 _259_
*771 _260_
*772 _261_
*773 _262_
*774 _263_
*775 _264_
*776 _265_
*777 _266_
*778 _267_
*779 _268_
*780 _269_
*781 _270_
*782 _271_
*783 _272_
*784 _273_
*785 _274_
*786 _275_
*787 _276_
*788 _277_
*789 _278_
*790 _279_
*791 _280_
*792 _281_
*793 _282_
*794 _283_
*795 _284_
*796 _285_
*797 _286_
*798 _287_
*799 _288_
*800 _289_
*801 _290_
*802 _291_
*803 _292_
*804 _293_
*805 _294_
*806 _295_
*807 _296_
*808 _297_
*809 _298_
*810 _299_
*811 _300_
*812 _301_
*813 clkbuf_0_clk
*814 clkbuf_1_0__f_clk
*815 clkbuf_1_1__f_clk
*816 clkload0
*817 fanout56
*818 fanout57
*819 fanout58
*820 fanout59
*821 fanout60
*822 fanout61
*823 fanout62
*824 fanout63
*825 fanout64
*826 fanout65
*827 fanout66
*828 fanout67
*829 fanout68
*830 fanout69
*831 fanout70
*832 fanout71
*833 fanout72
*834 fanout73
*835 fanout74
*836 fanout75
*837 fanout76
*838 fanout77
*839 fanout78
*840 fanout79
*841 fanout80
*842 hold1
*843 hold10
*844 hold2
*845 hold3
*846 hold4
*847 hold5
*848 hold6
*849 hold7
*850 hold8
*851 hold9
*852 input1
*853 output10
*854 output11
*855 output12
*856 output13
*857 output14
*858 output15
*859 output16
*860 output17
*861 output18
*862 output19
*863 output2
*864 output20
*865 output21
*866 output22
*867 output23
*868 output24
*869 output25
*870 output26
*871 output27
*872 output28
*873 output29
*874 output3
*875 output30
*876 output31
*877 output32
*878 output33
*879 output34
*880 output35
*881 output36
*882 output4
*883 output5
*884 output6
*885 output7
*886 output8
*887 output9

*PORTS
clk I
rst I
sign O
signB O
sine_out[0] O
sine_out[10] O
sine_out[11] O
sine_out[12] O
sine_out[13] O
sine_out[14] O
sine_out[15] O
sine_out[16] O
sine_out[17] O
sine_out[18] O
sine_out[19] O
sine_out[1] O
sine_out[20] O
sine_out[21] O
sine_out[22] O
sine_out[23] O
sine_out[24] O
sine_out[25] O
sine_out[26] O
sine_out[27] O
sine_out[28] O
sine_out[29] O
sine_out[2] O
sine_out[30] O
sine_out[31] O
sine_out[32] O
sine_out[3] O
sine_out[4] O
sine_out[5] O
sine_out[6] O
sine_out[7] O
sine_out[8] O
sine_out[9] O

*D_NET *3 0.00626497
*CONN
*P clk I
*I *813:A I *D sg13g2_buf_8
*CAP
1 clk 0.00212422
2 *813:A 0
3 *3:15 0.00100826
4 *3:11 0.00313248
5 *3:15 *815:A 0
6 *3:15 *50:10 0
7 *3:15 *89:8 0
8 *3:15 *182:10 0
9 *3:15 *244:8 0
*RES
1 clk *3:11 45.271 
2 *3:11 *3:15 31.9686 
3 *3:15 *813:A 40 
*END

*D_NET *4 0.00073594
*CONN
*P rst I
*I *852:A I *D sg13g2_buf_1
*CAP
1 rst 0.00036797
2 *852:A 0.00036797
3 *852:A *185:6 0
*RES
1 rst *852:A 44.3106 
*END

*D_NET *5 0.000565149
*CONN
*P sign O
*I *863:X O *D sg13g2_buf_1
*CAP
1 sign 0.000282574
2 *863:X 0.000282574
*RES
1 *863:X sign 43.6617 
*END

*D_NET *6 0.00110021
*CONN
*P signB O
*I *874:X O *D sg13g2_buf_1
*CAP
1 signB 0.000550103
2 *874:X 0.000550103
3 signB *206:20 0
*RES
1 *874:X signB 46.2573 
*END

*D_NET *7 0.0021478
*CONN
*P sine_out[0] O
*I *882:X O *D sg13g2_buf_1
*CAP
1 sine_out[0] 0.000689135
2 *882:X 0.000239745
3 *7:10 0.00092888
4 sine_out[0] sine_out[1] 0
5 *7:10 *18:10 0.000290042
6 *7:10 *208:10 0
*RES
1 *882:X *7:10 42.8634 
2 *7:10 sine_out[0] 28.0546 
*END

*D_NET *8 0.00231178
*CONN
*P sine_out[10] O
*I *883:X O *D sg13g2_buf_1
*CAP
1 sine_out[10] 0.0010352
2 *883:X 0.0010352
3 sine_out[10] sine_out[11] 0
4 sine_out[10] sine_out[8] 0
5 sine_out[10] sine_out[9] 0
6 sine_out[10] *884:A 0
7 sine_out[10] *885:A 0.000241372
8 sine_out[10] *163:32 0
*RES
1 *883:X sine_out[10] 31.5875 
*END

*D_NET *9 0.00174466
*CONN
*P sine_out[11] O
*I *884:X O *D sg13g2_buf_1
*CAP
1 sine_out[11] 0.000872331
2 *884:X 0.000872331
3 sine_out[11] sine_out[12] 0
4 sine_out[10] sine_out[11] 0
*RES
1 *884:X sine_out[11] 29.0846 
*END

*D_NET *10 0.0016852
*CONN
*P sine_out[12] O
*I *885:X O *D sg13g2_buf_1
*CAP
1 sine_out[12] 0.000842598
2 *885:X 0.000842598
3 sine_out[12] sine_out[13] 0
4 sine_out[11] sine_out[12] 0
*RES
1 *885:X sine_out[12] 29.1876 
*END

*D_NET *11 0.00158892
*CONN
*P sine_out[13] O
*I *886:X O *D sg13g2_buf_1
*CAP
1 sine_out[13] 0.000794458
2 *886:X 0.000794458
3 sine_out[13] sine_out[14] 0
4 sine_out[13] *887:A 0
5 sine_out[12] sine_out[13] 0
*RES
1 *886:X sine_out[13] 24.975 
*END

*D_NET *12 0.0015654
*CONN
*P sine_out[14] O
*I *887:X O *D sg13g2_buf_1
*CAP
1 sine_out[14] 0.000782698
2 *887:X 0.000782698
3 sine_out[14] sine_out[15] 0
4 sine_out[13] sine_out[14] 0
*RES
1 *887:X sine_out[14] 29.0846 
*END

*D_NET *13 0.00156694
*CONN
*P sine_out[15] O
*I *853:X O *D sg13g2_buf_1
*CAP
1 sine_out[15] 0.000783469
2 *853:X 0.000783469
3 sine_out[15] sine_out[16] 0
4 sine_out[14] sine_out[15] 0
*RES
1 *853:X sine_out[15] 28.9404 
*END

*D_NET *14 0.00157545
*CONN
*P sine_out[16] O
*I *854:X O *D sg13g2_buf_1
*CAP
1 sine_out[16] 0.000787724
2 *854:X 0.000787724
3 sine_out[16] sine_out[17] 0
4 sine_out[15] sine_out[16] 0
*RES
1 *854:X sine_out[16] 24.8158 
*END

*D_NET *15 0.00154358
*CONN
*P sine_out[17] O
*I *855:X O *D sg13g2_buf_1
*CAP
1 sine_out[17] 0.000771789
2 *855:X 0.000771789
3 sine_out[17] sine_out[18] 0
4 sine_out[16] sine_out[17] 0
*RES
1 *855:X sine_out[17] 28.8374 
*END

*D_NET *16 0.00154358
*CONN
*P sine_out[18] O
*I *856:X O *D sg13g2_buf_1
*CAP
1 sine_out[18] 0.000771789
2 *856:X 0.000771789
3 sine_out[18] sine_out[19] 0
4 sine_out[17] sine_out[18] 0
*RES
1 *856:X sine_out[18] 28.8374 
*END

*D_NET *17 0.00154358
*CONN
*P sine_out[19] O
*I *857:X O *D sg13g2_buf_1
*CAP
1 sine_out[19] 0.000771789
2 *857:X 0.000771789
3 sine_out[19] sine_out[20] 0
4 sine_out[18] sine_out[19] 0
*RES
1 *857:X sine_out[19] 28.8374 
*END

*D_NET *18 0.00261933
*CONN
*P sine_out[1] O
*I *858:X O *D sg13g2_buf_1
*CAP
1 sine_out[1] 0.000665817
2 *858:X 0.000264087
3 *18:10 0.000929904
4 sine_out[1] sine_out[2] 0.000469482
5 *18:10 sine_out[2] 0
6 *18:10 *208:10 0
7 sine_out[0] sine_out[1] 0
8 *7:10 *18:10 0.000290042
*RES
1 *858:X *18:10 42.9917 
2 *18:10 sine_out[1] 27.8383 
*END

*D_NET *19 0.00154358
*CONN
*P sine_out[20] O
*I *859:X O *D sg13g2_buf_1
*CAP
1 sine_out[20] 0.000771789
2 *859:X 0.000771789
3 sine_out[20] sine_out[21] 0
4 sine_out[19] sine_out[20] 0
*RES
1 *859:X sine_out[20] 28.8374 
*END

*D_NET *20 0.00154358
*CONN
*P sine_out[21] O
*I *860:X O *D sg13g2_buf_1
*CAP
1 sine_out[21] 0.000771789
2 *860:X 0.000771789
3 sine_out[21] sine_out[22] 0
4 sine_out[20] sine_out[21] 0
*RES
1 *860:X sine_out[21] 28.8374 
*END

*D_NET *21 0.00154358
*CONN
*P sine_out[22] O
*I *861:X O *D sg13g2_buf_1
*CAP
1 sine_out[22] 0.000771789
2 *861:X 0.000771789
3 sine_out[22] sine_out[23] 0
4 sine_out[21] sine_out[22] 0
*RES
1 *861:X sine_out[22] 28.8374 
*END

*D_NET *22 0.00154268
*CONN
*P sine_out[23] O
*I *862:X O *D sg13g2_buf_1
*CAP
1 sine_out[23] 0.000771339
2 *862:X 0.000771339
3 sine_out[23] sine_out[24] 0
4 sine_out[22] sine_out[23] 0
*RES
1 *862:X sine_out[23] 28.8374 
*END

*D_NET *23 0.00153151
*CONN
*P sine_out[24] O
*I *864:X O *D sg13g2_buf_1
*CAP
1 sine_out[24] 0.000765754
2 *864:X 0.000765754
3 sine_out[24] sine_out[25] 0
4 sine_out[23] sine_out[24] 0
*RES
1 *864:X sine_out[24] 28.8374 
*END

*D_NET *24 0.00156177
*CONN
*P sine_out[25] O
*I *865:X O *D sg13g2_buf_1
*CAP
1 sine_out[25] 0.000780887
2 *865:X 0.000780887
3 sine_out[25] sine_out[26] 0
4 sine_out[24] sine_out[25] 0
*RES
1 *865:X sine_out[25] 28.9404 
*END

*D_NET *25 0.00158169
*CONN
*P sine_out[26] O
*I *866:X O *D sg13g2_buf_1
*CAP
1 sine_out[26] 0.000790846
2 *866:X 0.000790846
3 sine_out[26] sine_out[27] 0
4 sine_out[26] *199:18 0
5 sine_out[25] sine_out[26] 0
*RES
1 *866:X sine_out[26] 23.8918 
*END

*D_NET *26 0.00154028
*CONN
*P sine_out[27] O
*I *867:X O *D sg13g2_buf_1
*CAP
1 sine_out[27] 0.000770141
2 *867:X 0.000770141
3 sine_out[27] sine_out[28] 0
4 sine_out[27] *810:RESET_B 0
5 sine_out[27] *27:10 0
6 sine_out[26] sine_out[27] 0
*RES
1 *867:X sine_out[27] 28.8374 
*END

*D_NET *27 0.00188648
*CONN
*P sine_out[28] O
*I *868:X O *D sg13g2_buf_1
*CAP
1 sine_out[28] 0.000703068
2 *868:X 0.000175529
3 *27:10 0.000878597
4 sine_out[28] sine_out[29] 0
5 *27:10 sine_out[32] 0
6 *27:10 *28:10 0.000129281
7 *27:10 *224:8 0
8 sine_out[27] sine_out[28] 0
9 sine_out[27] *27:10 0
*RES
1 *868:X *27:10 42.1218 
2 *27:10 sine_out[28] 28.0546 
*END

*D_NET *28 0.00313175
*CONN
*P sine_out[29] O
*I *869:X O *D sg13g2_buf_1
*CAP
1 sine_out[29] 0.000681107
2 *869:X 0.000378174
3 *28:10 0.00105928
4 sine_out[29] sine_out[30] 0
5 *28:10 *30:10 0.0007729
6 *28:10 *31:12 0.00011101
7 sine_out[28] sine_out[29] 0
8 *27:10 *28:10 0.000129281
*RES
1 *869:X *28:10 45.3045 
2 *28:10 sine_out[29] 27.8383 
*END

*D_NET *29 0.00229398
*CONN
*P sine_out[2] O
*I *870:X O *D sg13g2_buf_1
*CAP
1 sine_out[2] 0.000839756
2 *870:X 0.000839756
3 sine_out[2] sine_out[3] 0
4 sine_out[2] *33:12 0.000144985
5 sine_out[1] sine_out[2] 0.000469482
6 *18:10 sine_out[2] 0
*RES
1 *870:X sine_out[2] 30.0322 
*END

*D_NET *30 0.00306642
*CONN
*P sine_out[30] O
*I *871:X O *D sg13g2_buf_1
*CAP
1 sine_out[30] 0.000709556
2 *871:X 0.000437204
3 *30:10 0.00114676
4 sine_out[30] sine_out[31] 0
5 sine_out[30] sine_out[32] 0
6 *30:10 *32:8 0
7 *30:10 *224:8 0
8 sine_out[29] sine_out[30] 0
9 *28:10 *30:10 0.0007729
*RES
1 *871:X *30:10 45.0882 
2 *30:10 sine_out[30] 26.0218 
*END

*D_NET *31 0.0026327
*CONN
*P sine_out[31] O
*I *872:X O *D sg13g2_buf_1
*CAP
1 sine_out[31] 0.000473311
2 *872:X 0.000682586
3 *31:12 0.0011559
4 sine_out[31] sine_out[32] 0
5 *31:12 sine_out[32] 0
6 *31:12 *851:A 0.000209899
7 *31:12 *202:14 0
8 sine_out[30] sine_out[31] 0
9 *28:10 *31:12 0.00011101
*RES
1 *872:X *31:12 47.7559 
2 *31:12 sine_out[31] 25.459 
*END

*D_NET *32 0.00220197
*CONN
*P sine_out[32] O
*I *873:X O *D sg13g2_buf_1
*CAP
1 sine_out[32] 0.000742856
2 *873:X 0.000358128
3 *32:8 0.00110098
4 sine_out[30] sine_out[32] 0
5 sine_out[31] sine_out[32] 0
6 *27:10 sine_out[32] 0
7 *30:10 *32:8 0
8 *31:12 sine_out[32] 0
*RES
1 *873:X *32:8 43.5638 
2 *32:8 sine_out[32] 28.3992 
*END

*D_NET *33 0.00234866
*CONN
*P sine_out[3] O
*I *875:X O *D sg13g2_buf_1
*CAP
1 sine_out[3] 0.000636036
2 *875:X 0.000247175
3 *33:12 0.000883211
4 sine_out[3] sine_out[4] 0.000437251
5 *33:12 sine_out[4] 0
6 *33:12 *158:31 0
7 *33:12 *209:8 0
8 sine_out[2] sine_out[3] 0
9 sine_out[2] *33:12 0.000144985
*RES
1 *875:X *33:12 42.9046 
2 *33:12 sine_out[3] 27.622 
*END

*D_NET *34 0.00217956
*CONN
*P sine_out[4] O
*I *876:X O *D sg13g2_buf_1
*CAP
1 sine_out[4] 0.000871154
2 *876:X 0.000871154
3 sine_out[4] sine_out[5] 0
4 sine_out[4] *794:A2 0
5 sine_out[4] *36:10 0
6 sine_out[3] sine_out[4] 0.000437251
7 *33:12 sine_out[4] 0
*RES
1 *876:X sine_out[4] 30.0322 
*END

*D_NET *35 0.00248746
*CONN
*P sine_out[5] O
*I *877:X O *D sg13g2_buf_1
*CAP
1 sine_out[5] 0.00101959
2 *877:X 0.00101959
3 sine_out[5] sine_out[6] 0
4 sine_out[5] *879:A 0.000240332
5 sine_out[5] *881:A 0
6 sine_out[5] *36:10 0
7 sine_out[5] *37:10 0.000207943
8 sine_out[5] *213:22 0
9 sine_out[4] sine_out[5] 0
*RES
1 *877:X sine_out[5] 31.4845 
*END

*D_NET *36 0.00252029
*CONN
*P sine_out[6] O
*I *878:X O *D sg13g2_buf_1
*CAP
1 sine_out[6] 0.000611438
2 *878:X 0.000463652
3 *36:10 0.00107509
4 sine_out[6] sine_out[7] 0
5 *36:10 *876:A 0
6 *36:10 *37:10 0.000290072
7 *36:10 *158:31 0
8 *36:10 *175:21 8.00364e-05
9 *36:10 *209:8 0
10 sine_out[4] *36:10 0
11 sine_out[5] sine_out[6] 0
12 sine_out[5] *36:10 0
*RES
1 *878:X *36:10 45.0264 
2 *36:10 sine_out[6] 22.8635 
*END

*D_NET *37 0.0024455
*CONN
*P sine_out[7] O
*I *879:X O *D sg13g2_buf_1
*CAP
1 sine_out[7] 0.000629856
2 *879:X 0.000281893
3 *37:10 0.00091175
4 sine_out[7] sine_out[8] 0
5 sine_out[7] *39:10 4.77425e-05
6 *37:10 *38:8 0
7 *37:10 *39:10 7.62389e-05
8 sine_out[5] *37:10 0.000207943
9 sine_out[6] sine_out[7] 0
10 *36:10 *37:10 0.000290072
*RES
1 *879:X *37:10 43.7286 
2 *37:10 sine_out[7] 21.3198 
*END

*D_NET *38 0.00230008
*CONN
*P sine_out[8] O
*I *880:X O *D sg13g2_buf_1
*CAP
1 sine_out[8] 0.000756184
2 *880:X 0.000142094
3 *38:8 0.000898278
4 sine_out[8] sine_out[9] 0
5 sine_out[8] *39:10 0
6 *38:8 *39:10 0
7 *38:8 *209:8 0.00050352
8 sine_out[10] sine_out[8] 0
9 sine_out[7] sine_out[8] 0
10 *37:10 *38:8 0
*RES
1 *880:X *38:8 42.3278 
2 *38:8 sine_out[8] 28.3024 
*END

*D_NET *39 0.00227354
*CONN
*P sine_out[9] O
*I *881:X O *D sg13g2_buf_1
*CAP
1 sine_out[9] 0.000602001
2 *881:X 0.00047278
3 *39:10 0.00107478
4 *39:10 *788:A 0
5 *39:10 *881:A 0
6 *39:10 *163:32 0
7 *39:10 *209:8 0
8 *39:10 *211:10 0
9 sine_out[10] sine_out[9] 0
10 sine_out[7] *39:10 4.77425e-05
11 sine_out[8] sine_out[9] 0
12 sine_out[8] *39:10 0
13 *37:10 *39:10 7.62389e-05
14 *38:8 *39:10 0
*RES
1 *881:X *39:10 45.0264 
2 *39:10 sine_out[9] 26.9731 
*END

*D_NET *40 0.000350734
*CONN
*I *812:D I *D sg13g2_dfrbpq_1
*I *730:Y O *D sg13g2_inv_1
*CAP
1 *812:D 0.000175367
2 *730:Y 0.000175367
3 *812:D *814:A 0
4 *812:D *850:A 0
5 *812:D *254:18 0
*RES
1 *730:Y *812:D 41.7819 
*END

*D_NET *41 0.000703295
*CONN
*I *844:A I *D sg13g2_dlygate4sd3_1
*I *725:Y O *D sg13g2_xnor2_1
*CAP
1 *844:A 0
2 *725:Y 0.000300471
3 *41:12 0.000300471
4 *41:12 *204:12 0
5 *41:12 *215:10 0.000102353
*RES
1 *725:Y *41:12 42.7501 
2 *41:12 *844:A 40 
*END

*D_NET *42 0.00030746
*CONN
*I *846:A I *D sg13g2_dlygate4sd3_1
*I *812:Q O *D sg13g2_dfrbpq_1
*CAP
1 *846:A 0.00015373
2 *812:Q 0.00015373
*RES
1 *812:Q *846:A 41.751 
*END

*D_NET *43 0.000219345
*CONN
*I *845:A I *D sg13g2_dlygate4sd3_1
*I *804:Q O *D sg13g2_dfrbpq_1
*CAP
1 *845:A 0.000101945
2 *804:Q 0.000101945
3 *845:A *840:A 1.54556e-05
4 *845:A *252:10 0
*RES
1 *804:Q *845:A 41.1639 
*END

*D_NET *44 0.00128067
*CONN
*I *848:A I *D sg13g2_dlygate4sd3_1
*I *747:B I *D sg13g2_nand3_1
*I *805:Q O *D sg13g2_dfrbpq_1
*CAP
1 *848:A 0.000213467
2 *747:B 0.000146306
3 *805:Q 0.000292845
4 *44:8 0.000225684
5 *747:B *747:A 0
6 *747:B *118:12 0.000144985
7 *747:B *252:56 1.54008e-05
8 *747:B *252:69 0
9 *848:A *245:10 0
10 *848:A *252:69 0.000241983
11 *44:8 *183:8 0
12 *44:8 *248:16 0
*RES
1 *805:Q *44:8 40.8446 
2 *44:8 *747:B 41.4008 
3 *805:Q *848:A 42.4617 
*END

*D_NET *45 0.000939764
*CONN
*I *805:D I *D sg13g2_dfrbpq_1
*I *703:Y O *D sg13g2_xnor2_1
*CAP
1 *805:D 0.000469882
2 *703:Y 0.000469882
3 *805:D *247:59 0
4 *805:D *249:16 0
5 *805:D *249:42 0
6 *805:D *250:31 0
7 *805:D *252:40 0
*RES
1 *703:Y *805:D 44.2604 
*END

*D_NET *46 0.00087586
*CONN
*I *849:A I *D sg13g2_dlygate4sd3_1
*I *843:A I *D sg13g2_dlygate4sd3_1
*I *806:Q O *D sg13g2_dfrbpq_2
*CAP
1 *849:A 0.000159471
2 *843:A 0.000194504
3 *806:Q 2.77263e-05
4 *46:6 0.000381701
5 *849:A *254:58 0.000112458
*RES
1 *806:Q *46:6 20.3502 
2 *46:6 *843:A 22.266 
3 *46:6 *849:A 21.8334 
*END

*D_NET *47 0.000197369
*CONN
*I *806:D I *D sg13g2_dfrbpq_2
*I *707:X O *D sg13g2_xor2_1
*CAP
1 *806:D 9.86845e-05
2 *707:X 9.86845e-05
3 *806:D *707:B 0
4 *806:D *248:10 0
*RES
1 *707:X *806:D 41.1639 
*END

*D_NET *48 0.00457401
*CONN
*I *850:A I *D sg13g2_dlygate4sd3_1
*I *833:A I *D sg13g2_buf_8
*I *807:Q O *D sg13g2_dfrbpq_1
*CAP
1 *850:A 0.000235045
2 *833:A 0.000523801
3 *807:Q 0.000707611
4 *48:12 0.00146646
5 *833:A *708:A2 8.01116e-05
6 *833:A *49:10 0
7 *833:A *183:8 0.000394981
8 *833:A *183:35 0
9 *833:A *228:8 0
10 *833:A *228:12 0
11 *833:A *228:14 0
12 *850:A *812:RESET_B 4.77702e-05
13 *850:A *814:A 0.000274325
14 *48:12 *49:10 0
15 *48:12 *183:50 0.00036888
16 *48:12 *185:12 0.00047503
17 *812:D *850:A 0
*RES
1 *807:Q *48:12 47.6941 
2 *48:12 *833:A 45.6547 
3 *48:12 *850:A 42.6471 
*END

*D_NET *49 0.000987108
*CONN
*I *807:D I *D sg13g2_dfrbpq_1
*I *711:X O *D sg13g2_xor2_1
*CAP
1 *807:D 0
2 *711:X 0.000429015
3 *49:10 0.000429015
4 *49:10 *814:A 0
5 *49:10 *185:12 0.000129077
6 *49:10 *228:8 0
7 *49:10 *248:10 0
8 *833:A *49:10 0
9 *48:12 *49:10 0
*RES
1 *711:X *49:10 44.2539 
2 *49:10 *807:D 40 
*END

*D_NET *50 0.000706525
*CONN
*I *832:A I *D sg13g2_buf_2
*I *808:Q O *D sg13g2_dfrbpq_1
*CAP
1 *832:A 0
2 *808:Q 0.000353263
3 *50:10 0.000353263
4 *50:10 *219:8 0
5 *3:15 *50:10 0
*RES
1 *808:Q *50:10 44.223 
2 *50:10 *832:A 40 
*END

*D_NET *51 0.00100634
*CONN
*I *808:D I *D sg13g2_dfrbpq_1
*I *715:X O *D sg13g2_xor2_1
*CAP
1 *808:D 0.000317162
2 *715:X 0.000317162
3 *808:D *815:A 0.000372013
4 *808:D *94:10 0
*RES
1 *715:X *808:D 43.8213 
*END

*D_NET *52 0.000897502
*CONN
*I *827:A I *D sg13g2_buf_2
*I *809:Q O *D sg13g2_dfrbpq_1
*CAP
1 *827:A 0
2 *809:Q 0.000343815
3 *52:10 0.000343815
4 *52:10 *863:A 0.000209871
5 *52:10 *202:14 0
*RES
1 *809:Q *52:10 44.1921 
2 *52:10 *827:A 40 
*END

*D_NET *53 0.000237962
*CONN
*I *809:D I *D sg13g2_dfrbpq_1
*I *719:X O *D sg13g2_xor2_1
*CAP
1 *809:D 0
2 *719:X 0.000118981
3 *53:8 0.000118981
4 *53:8 *202:14 0
5 *53:8 *229:44 0
6 *53:8 *229:46 0
*RES
1 *719:X *53:8 41.339 
2 *53:8 *809:D 40 
*END

*D_NET *54 0.00045338
*CONN
*I *851:A I *D sg13g2_dlygate4sd3_1
*I *810:Q O *D sg13g2_dfrbpq_1
*CAP
1 *851:A 0.000121741
2 *810:Q 0.000121741
3 *851:A *802:A 0
4 *851:A *811:RESET_B 0
5 *31:12 *851:A 0.000209899
*RES
1 *810:Q *851:A 41.4008 
*END

*D_NET *55 0.000334491
*CONN
*I *810:D I *D sg13g2_dfrbpq_1
*I *722:Y O *D sg13g2_xnor2_1
*CAP
1 *810:D 0.000167245
2 *722:Y 0.000167245
3 *810:D *810:RESET_B 0
4 *810:D *867:A 0
5 *810:D *199:18 0
6 *810:D *254:40 0
*RES
1 *722:Y *810:D 40.6931 
*END

*D_NET *56 0.0116055
*CONN
*I *804:D I *D sg13g2_dfrbpq_1
*I *704:A1 I *D sg13g2_o21ai_1
*I *649:A I *D sg13g2_nor2_1
*I *674:A1 I *D sg13g2_o21ai_1
*I *645:A I *D sg13g2_nor2_1
*I *639:Y O *D sg13g2_inv_2
*CAP
1 *804:D 8.64409e-05
2 *704:A1 0.000545051
3 *649:A 0.000187909
4 *674:A1 2.77263e-05
5 *645:A 0.000147867
6 *639:Y 0.000301133
7 *56:37 0.000483795
8 *56:22 0.000457069
9 *56:18 0.00167534
10 *56:8 0.00239404
11 *645:A *174:16 0.000448099
12 *645:A *176:22 0.00023547
13 *645:A *181:18 4.77702e-05
14 *649:A *79:46 0
15 *649:A *181:18 0
16 *649:A *203:12 0
17 *649:A *235:115 0
18 *649:A *248:74 0
19 *704:A1 *640:A 0.000239415
20 *704:A1 *704:A2 1.54008e-05
21 *704:A1 *804:CLK 0.00014391
22 *704:A1 *254:62 0.000270567
23 *56:8 *639:A 0.000371258
24 *56:18 *639:A 0
25 *56:18 *731:A 4.77699e-05
26 *56:18 *737:B 0.000241983
27 *56:18 *761:A 0
28 *56:18 *774:A2 0
29 *56:18 *99:12 0
30 *56:18 *102:12 0
31 *56:18 *108:10 0
32 *56:18 *181:6 0
33 *56:18 *239:10 0
34 *56:18 *247:59 0.000916204
35 *56:18 *247:72 6.46834e-05
36 *56:18 *248:32 0.000532862
37 *56:18 *248:66 0.00127544
38 *56:18 *252:40 0
39 *56:22 *174:16 0.000213286
40 *56:22 *176:22 0.000235055
41 *56:37 *248:66 0
42 *56:37 *248:74 0
43 *56:37 *249:72 0
*RES