*SPEF "ieee 1481-1999"
*DESIGN "DigitalSine"
*DATE "20:54:26 Thursday February 26, 2026"
*VENDOR "The OpenROAD Project"
*PROGRAM "OpenROAD"
*VERSION "341650e72dad0dc8571822ff8c5d9c5e365327f7"
*DESIGN_FLOW "NAME_SCOPE LOCAL" "PIN_CAP NONE"
*DIVIDER /
*DELIMITER :
*BUS_DELIMITER []
*T_UNIT 1 NS
*C_UNIT 1 PF
*R_UNIT 1 OHM
*L_UNIT 1 HENRY

*NAME_MAP
*3 clk
*4 rst
*5 sign
*6 signB
*7 sine_out[0]
*8 sine_out[10]
*9 sine_out[11]
*10 sine_out[12]
*11 sine_out[13]
*12 sine_out[14]
*13 sine_out[15]
*14 sine_out[16]
*15 sine_out[17]
*16 sine_out[1]
*17 sine_out[2]
*18 sine_out[3]
*19 sine_out[4]
*20 sine_out[5]
*21 sine_out[6]
*22 sine_out[7]
*23 sine_out[8]
*24 sine_out[9]
*25 CTRL\.P0
*26 CTRL\.P1
*27 CTRL\.S0
*28 DPATH\.SUM\.Cout0
*29 DPATH\.SUM\.fa_1\.A
*30 DPATH\.SUM\.fa_1\.S
*31 DPATH\.SUM\.fa_2\.A
*32 DPATH\.SUM\.fa_2\.S
*33 DPATH\.SUM\.fa_3\.A
*34 DPATH\.SUM\.fa_3\.S
*35 DPATH\.SUM\.fa_4\.A
*36 DPATH\.SUM\.fa_4\.S
*37 DPATH\.SUM\.fa_5\.A
*38 DPATH\.SUM\.fa_5\.S
*39 DPATH\.SUM\.fa_6\.A
*40 DPATH\.SUM\.fa_6\.S
*41 DPATH\.SUM\.ha_0\.S
*42 _000_
*43 _001_
*44 _002_
*45 _003_
*46 _004_
*47 _005_
*48 _006_
*49 _007_
*50 _008_
*51 _009_
*52 _010_
*53 _011_
*54 _012_
*55 _013_
*56 _014_
*57 _015_
*58 _016_
*59 _017_
*60 _018_
*61 _019_
*62 _020_
*63 _021_
*64 _022_
*65 _023_
*66 _024_
*67 _025_
*68 _026_
*69 _027_
*70 _028_
*71 _029_
*72 _030_
*73 _031_
*74 _032_
*75 _033_
*76 _034_
*77 _035_
*78 _036_
*79 _037_
*80 _038_
*81 _039_
*82 _040_
*83 _041_
*84 _042_
*85 _043_
*86 _044_
*87 _045_
*88 _046_
*89 _047_
*90 _048_
*91 _049_
*92 _050_
*93 _051_
*94 _052_
*95 _053_
*96 _054_
*97 _055_
*98 _056_
*99 _057_
*100 _058_
*101 _059_
*102 _060_
*103 _061_
*104 _062_
*105 _063_
*106 _064_
*107 _065_
*108 _066_
*109 _067_
*110 _068_
*111 _069_
*112 _070_
*113 _071_
*114 _072_
*115 _073_
*116 _074_
*117 _075_
*118 _076_
*119 _077_
*120 _078_
*121 _079_
*122 _080_
*123 _081_
*124 _082_
*125 _083_
*126 _084_
*127 _085_
*128 _086_
*129 _087_
*130 _088_
*131 _089_
*132 _090_
*133 _091_
*134 _092_
*135 _093_
*136 _094_
*137 _095_
*138 _096_
*139 _097_
*140 _098_
*141 _099_
*142 _100_
*143 _101_
*144 _102_
*145 _103_
*146 _104_
*147 _105_
*148 _106_
*149 _107_
*150 _108_
*151 _109_
*152 _110_
*153 _111_
*154 _112_
*155 _113_
*156 _114_
*157 _115_
*158 _116_
*159 _117_
*160 _118_
*161 _119_
*162 _120_
*163 _121_
*164 _122_
*165 _123_
*166 _124_
*167 _125_
*168 _126_
*169 _127_
*170 clknet_0_clk
*171 clknet_1_0__leaf_clk
*172 clknet_1_1__leaf_clk
*173 net1
*174 net10
*175 net11
*176 net12
*177 net13
*178 net14
*179 net15
*180 net16
*181 net17
*182 net18
*183 net19
*184 net2
*185 net20
*186 net21
*187 net22
*188 net23
*189 net24
*190 net3
*191 net4
*192 net46
*193 net47
*194 net48
*195 net49
*196 net5
*197 net50
*198 net51
*199 net52
*200 net53
*201 net54
*202 net55
*203 net56
*204 net57
*205 net58
*206 net59
*207 net6
*208 net60
*209 net61
*210 net62
*211 net63
*212 net64
*213 net65
*214 net66
*215 net67
*216 net7
*217 net8
*218 net9
*219 FILLER_0_0
*220 FILLER_0_106
*221 FILLER_0_113
*222 FILLER_0_117
*223 FILLER_0_14
*224 FILLER_0_22
*225 FILLER_0_26
*226 FILLER_0_31
*227 FILLER_0_44
*228 FILLER_0_67
*229 FILLER_0_7
*230 FILLER_0_72
*231 FILLER_0_79
*232 FILLER_0_85
*233 FILLER_0_92
*234 FILLER_0_99
*235 FILLER_10_0
*236 FILLER_10_2
*237 FILLER_10_30
*238 FILLER_10_76
*239 FILLER_10_80
*240 FILLER_10_94
*241 FILLER_11_0
*242 FILLER_11_118
*243 FILLER_11_31
*244 FILLER_11_33
*245 FILLER_11_82
*246 FILLER_11_91
*247 FILLER_11_93
*248 FILLER_12_116
*249 FILLER_12_118
*250 FILLER_12_20
*251 FILLER_12_52
*252 FILLER_12_61
*253 FILLER_12_87
*254 FILLER_13_116
*255 FILLER_13_118
*256 FILLER_13_16
*257 FILLER_13_22
*258 FILLER_13_29
*259 FILLER_13_5
*260 FILLER_13_51
*261 FILLER_13_53
*262 FILLER_14_117
*263 FILLER_14_14
*264 FILLER_14_20
*265 FILLER_14_68
*266 FILLER_14_70
*267 FILLER_14_92
*268 FILLER_1_0
*269 FILLER_1_106
*270 FILLER_1_113
*271 FILLER_1_117
*272 FILLER_1_49
*273 FILLER_1_51
*274 FILLER_1_7
*275 FILLER_1_92
*276 FILLER_1_99
*277 FILLER_2_104
*278 FILLER_2_111
*279 FILLER_2_12
*280 FILLER_2_19
*281 FILLER_2_26
*282 FILLER_2_5
*283 FILLER_2_57
*284 FILLER_3_0
*285 FILLER_3_103
*286 FILLER_3_118
*287 FILLER_3_14
*288 FILLER_3_16
*289 FILLER_3_37
*290 FILLER_3_52
*291 FILLER_3_54
*292 FILLER_3_68
*293 FILLER_3_7
*294 FILLER_3_83
*295 FILLER_4_0
*296 FILLER_4_14
*297 FILLER_4_16
*298 FILLER_4_49
*299 FILLER_4_63
*300 FILLER_4_7
*301 FILLER_5_0
*302 FILLER_5_11
*303 FILLER_5_68
*304 FILLER_5_7
*305 FILLER_6_0
*306 FILLER_6_105
*307 FILLER_6_13
*308 FILLER_6_23
*309 FILLER_6_25
*310 FILLER_6_47
*311 FILLER_6_7
*312 FILLER_7_0
*313 FILLER_7_23
*314 FILLER_7_49
*315 FILLER_7_61
*316 FILLER_7_75
*317 FILLER_7_77
*318 FILLER_7_94
*319 FILLER_8_0
*320 FILLER_8_31
*321 FILLER_8_33
*322 FILLER_8_40
*323 FILLER_8_42
*324 FILLER_8_53
*325 FILLER_8_60
*326 FILLER_8_82
*327 FILLER_9_19
*328 FILLER_9_31
*329 FILLER_9_33
*330 FILLER_9_91
*331 _128_
*332 _129_
*333 _130_
*334 _131_
*335 _132_
*336 _133_
*337 _134_
*338 _135_
*339 _136_
*340 _137_
*341 _138_
*342 _139_
*343 _140_
*344 _141_
*345 _142_
*346 _143_
*347 _144_
*348 _145_
*349 _146_
*350 _147_
*351 _148_
*352 _149_
*353 _150_
*354 _151_
*355 _152_
*356 _153_
*357 _154_
*358 _155_
*359 _156_
*360 _157_
*361 _158_
*362 _159_
*363 _160_
*364 _161_
*365 _162_
*366 _163_
*367 _164_
*368 _165_
*369 _166_
*370 _167_
*371 _168_
*372 _169_
*373 _170_
*374 _171_
*375 _172_
*376 _173_
*377 _174_
*378 _175_
*379 _176_
*380 _177_
*381 _178_
*382 _179_
*383 _180_
*384 _181_
*385 _182_
*386 _183_
*387 _184_
*388 _185_
*389 _186_
*390 _187_
*391 _188_
*392 _189_
*393 _190_
*394 _191_
*395 _192_
*396 _193_
*397 _194_
*398 _195_
*399 _196_
*400 _197_
*401 _198_
*402 _199_
*403 _200_
*404 _201_
*405 _202_
*406 _203_
*407 _204_
*408 _205_
*409 _206_
*410 _207_
*411 _208_
*412 _209_
*413 _210_
*414 _211_
*415 _212_
*416 _213_
*417 _214_
*418 _215_
*419 _216_
*420 _217_
*421 _218_
*422 _219_
*423 _220_
*424 _221_
*425 _222_
*426 _223_
*427 _224_
*428 _225_
*429 _226_
*430 _227_
*431 _228_
*432 _229_
*433 _230_
*434 _231_
*435 _232_
*436 _233_
*437 _234_
*438 _235_
*439 _236_
*440 _237_
*441 _238_
*442 _239_
*443 _240_
*444 _241_
*445 _242_
*446 _243_
*447 _244_
*448 _245_
*449 _246_
*450 _247_
*451 _248_
*452 _249_
*453 _250_
*454 _251_
*455 _252_
*456 _253_
*457 _254_
*458 _255_
*459 _256_
*460 _257_
*461 _258_
*462 _259_
*463 _260_
*464 _261_
*465 _262_
*466 _263_
*467 _264_
*468 _265_
*469 _266_
*470 _267_
*471 _268_
*472 _269_
*473 _270_
*474 _271_
*475 _272_
*476 _273_
*477 _274_
*478 _275_
*479 _276_
*480 _277_
*481 _278_
*482 _279_
*483 _280_
*484 _281_
*485 _282_
*486 _283_
*487 _284_
*488 _285_
*489 _286_
*490 _287_
*491 _288_
*492 _289_
*493 _290_
*494 _291_
*495 _292_
*496 clkbuf_0_clk
*497 clkbuf_1_0__f_clk
*498 clkbuf_1_1__f_clk
*499 clkload0
*500 fanout22
*501 fanout46
*502 fanout47
*503 fanout48
*504 fanout49
*505 fanout50
*506 fanout51
*507 fanout52
*508 fanout53
*509 fanout54
*510 fanout55
*511 fanout56
*512 fanout57
*513 fanout58
*514 fanout59
*515 fanout60
*516 fanout61
*517 fanout62
*518 fanout63
*519 fanout64
*520 fanout65
*521 fanout66
*522 fanout67
*523 hold1
*524 hold2
*525 input1
*526 output10
*527 output11
*528 output12
*529 output13
*530 output14
*531 output15
*532 output16
*533 output17
*534 output18
*535 output19
*536 output2
*537 output20
*538 output21
*539 output3
*540 output4
*541 output5
*542 output6
*543 output7
*544 output8
*545 output9

*PORTS
clk I
rst I
sign O
signB O
sine_out[0] O
sine_out[10] O
sine_out[11] O
sine_out[12] O
sine_out[13] O
sine_out[14] O
sine_out[15] O
sine_out[16] O
sine_out[17] O
sine_out[1] O
sine_out[2] O
sine_out[3] O
sine_out[4] O
sine_out[5] O
sine_out[6] O
sine_out[7] O
sine_out[8] O
sine_out[9] O

*D_NET *3 0.00631388
*CONN
*P clk I
*I *496:A I *D sg13g2_buf_8
*CAP
1 clk 0.00195471
2 *496:A 0
3 *3:15 0.000768992
4 *3:9 0.0027237
5 *3:9 *504:A 0
6 *3:9 *505:A 0
7 *3:9 *507:A 0
8 *3:9 *545:A 0.000176674
9 *3:9 *14:8 0
10 *3:9 *35:19 0
11 *3:9 *172:6 0
12 *3:9 *192:14 0.000436081
13 *3:9 *197:6 0
14 *3:9 *197:107 0
15 *3:9 *199:8 0
16 *3:15 *340:A 0.000126859
17 *3:15 *46:8 0
18 *3:15 *193:96 0.000126859
*RES
1 clk *3:9 40.2704 
2 *3:9 *3:15 47.2718 
3 *3:15 *496:A 20 
*END

*D_NET *4 0.000921876
*CONN
*P rst I
*I *525:A I *D sg13g2_buf_1
*CAP
1 rst 0.000460938
2 *525:A 0.000460938
3 *525:A *173:10 0
*RES
1 rst *525:A 45.0985 
*END

*D_NET *5 0.00091755
*CONN
*P sign O
*I *536:X O *D sg13g2_buf_2
*CAP
1 sign 0.000458775
2 *536:X 0.000458775
3 sign *184:14 0
*RES
1 *536:X sign 45.0264 
*END

*D_NET *6 0.000995662
*CONN
*P signB O
*I *539:X O *D sg13g2_buf_2
*CAP
1 signB 0.000363826
2 *539:X 0.000363826
3 signB *389:A 8.02269e-05
4 signB *7:8 0
5 signB *16:10 0
6 signB *57:12 0.000112569
7 signB *204:92 7.52149e-05
*RES
1 *539:X signB 44.1612 
*END

*D_NET *7 0.00327708
*CONN
*P sine_out[0] O
*I *540:X O *D sg13g2_buf_2
*CAP
1 sine_out[0] 0.00114105
2 *540:X 0.000353614
3 *7:8 0.00149466
4 sine_out[0] sine_out[1] 0
5 *7:8 *366:A 0
6 *7:8 *16:10 0
7 *7:8 *54:24 0
8 *7:8 *57:12 0.000287758
9 signB *7:8 0
*RES
1 *540:X *7:8 44.3054 
2 *7:8 sine_out[0] 33.0295 
*END

*D_NET *8 0.0016293
*CONN
*P sine_out[10] O
*I *541:X O *D sg13g2_buf_2
*CAP
1 sine_out[10] 0.00081465
2 *541:X 0.00081465
3 sine_out[10] sine_out[11] 0
4 sine_out[10] sine_out[9] 0
5 sine_out[10] *155:24 0
*RES
1 *541:X sine_out[10] 29.7335 
*END

*D_NET *9 0.0017028
*CONN
*P sine_out[11] O
*I *542:X O *D sg13g2_buf_2
*CAP
1 sine_out[11] 0.000843698
2 *542:X 0.000843698
3 sine_out[11] sine_out[12] 0
4 sine_out[11] *464:A 0
5 sine_out[11] *207:22 1.54008e-05
6 sine_out[10] sine_out[11] 0
*RES
1 *542:X sine_out[11] 30.0837 
*END

*D_NET *10 0.00173368
*CONN
*P sine_out[12] O
*I *543:X O *D sg13g2_buf_2
*CAP
1 sine_out[12] 0.000826783
2 *543:X 0.000826783
3 sine_out[12] sine_out[13] 0
4 sine_out[12] *464:A 8.01116e-05
5 sine_out[12] *543:A 0
6 sine_out[11] sine_out[12] 0
*RES
1 *543:X sine_out[12] 29.8365 
*END

*D_NET *11 0.00317137
*CONN
*P sine_out[13] O
*I *544:X O *D sg13g2_buf_2
*CAP
1 sine_out[13] 0.00122369
2 *544:X 0.00122369
3 sine_out[13] sine_out[14] 0
4 sine_out[13] *356:B 0
5 sine_out[13] *356:A 8.01116e-05
6 sine_out[13] *455:B 0
7 sine_out[13] *469:A2 0
8 sine_out[13] *543:A 0
9 sine_out[13] *544:A 0.00024184
10 sine_out[13] *151:50 0.000241841
11 sine_out[13] *151:65 4.77425e-05
12 sine_out[13] *195:18 4.77699e-05
13 sine_out[13] *195:33 6.46834e-05
14 sine_out[12] sine_out[13] 0
*RES
1 *544:X sine_out[13] 33.8329 
*END

*D_NET *12 0.00338706
*CONN
*P sine_out[14] O
*I *545:X O *D sg13g2_buf_2
*CAP
1 sine_out[14] 0.000504562
2 *545:X 0.000188427
3 *12:14 0.00130529
4 *12:8 0.000989155
5 *12:8 *15:8 0
6 *12:8 *192:14 0.000187954
7 *12:8 *199:12 0
8 *12:8 *218:14 0
9 *12:14 *176:18 0.000211676
10 *12:14 *186:14 0
11 sine_out[13] sine_out[14] 0
*RES
1 *545:X *12:8 42.0806 
2 *12:8 *12:14 48.755 
3 *12:14 sine_out[14] 26.1079 
*END

*D_NET *13 0.00316117
*CONN
*P sine_out[15] O
*I *526:X O *D sg13g2_buf_2
*CAP
1 sine_out[15] 0.00158059
2 *526:X 0.00158059
3 sine_out[15] sine_out[16] 0
4 sine_out[15] *504:A 0
5 sine_out[15] *526:A 0
6 sine_out[15] *192:14 0
*RES
1 *526:X sine_out[15] 37.2731 
*END

*D_NET *14 0.00539423
*CONN
*P sine_out[16] O
*I *527:X O *D sg13g2_buf_2
*CAP
1 sine_out[16] 0.00120602
2 *527:X 0.000506153
3 *14:8 0.00171217
4 sine_out[16] sine_out[17] 0
5 *14:8 *356:B 0.000441205
6 *14:8 *504:A 0.000265663
7 *14:8 *526:A 0
8 *14:8 *199:12 0.000447183
9 *14:8 *199:16 0.000815834
10 sine_out[15] sine_out[16] 0
11 *3:9 *14:8 0
*RES
1 *527:X *14:8 47.2718 
2 *14:8 sine_out[16] 33.0295 
*END

*D_NET *15 0.00376448
*CONN
*P sine_out[17] O
*I *528:X O *D sg13g2_buf_2
*CAP
1 sine_out[17] 0.00140778
2 *528:X 0.000474458
3 *15:8 0.00188224
4 *15:8 *218:14 0
5 sine_out[16] sine_out[17] 0
6 *12:8 *15:8 0
*RES
1 *528:X *15:8 45.7886 
2 *15:8 sine_out[17] 36.9229 
*END

*D_NET *16 0.002567
*CONN
*P sine_out[1] O
*I *529:X O *D sg13g2_buf_2
*CAP
1 sine_out[1] 0.00111193
2 *529:X 0.000147702
3 *16:10 0.00125963
4 sine_out[1] sine_out[2] 0
5 sine_out[1] *389:A 0
6 sine_out[1] *389:B 0
7 sine_out[1] *57:12 0
8 *16:10 *57:12 4.77425e-05
9 signB *16:10 0
10 sine_out[0] sine_out[1] 0
11 *7:8 *16:10 0
*RES
1 *529:X *16:10 41.3802 
2 *16:10 sine_out[1] 32.5969 
*END

*D_NET *17 0.00159597
*CONN
*P sine_out[2] O
*I *530:X O *D sg13g2_buf_2
*CAP
1 sine_out[2] 0.000797985
2 *530:X 0.000797985
3 sine_out[2] sine_out[3] 0
4 sine_out[2] *389:B 0
5 sine_out[2] *530:A 0
6 sine_out[1] sine_out[2] 0
*RES
1 *530:X sine_out[2] 29.5893 
*END

*D_NET *18 0.00164513
*CONN
*P sine_out[3] O
*I *531:X O *D sg13g2_buf_2
*CAP
1 sine_out[3] 0.000822563
2 *531:X 0.000822563
3 sine_out[3] sine_out[4] 0
4 sine_out[3] *461:B1 0
5 sine_out[3] *182:14 0
6 sine_out[3] *200:8 0
7 sine_out[2] sine_out[3] 0
*RES
1 *531:X sine_out[3] 29.7335 
*END

*D_NET *19 0.00162442
*CONN
*P sine_out[4] O
*I *532:X O *D sg13g2_buf_2
*CAP
1 sine_out[4] 0.000812208
2 *532:X 0.000812208
3 sine_out[4] sine_out[5] 0
4 sine_out[4] *148:61 0
5 sine_out[3] sine_out[4] 0
*RES
1 *532:X sine_out[4] 29.4863 
*END

*D_NET *20 0.00181519
*CONN
*P sine_out[5] O
*I *533:X O *D sg13g2_buf_2
*CAP
1 sine_out[5] 0.000907593
2 *533:X 0.000907593
3 sine_out[5] *21:8 0
4 sine_out[4] sine_out[5] 0
*RES
1 *533:X sine_out[5] 29.7335 
*END

*D_NET *21 0.00199417
*CONN
*P sine_out[6] O
*I *534:X O *D sg13g2_buf_2
*CAP
1 sine_out[6] 0.00017962
2 *534:X 0.000817467
3 *21:8 0.000997087
4 sine_out[6] sine_out[7] 0
5 *21:8 *214:121 0
6 sine_out[5] *21:8 0
*RES
1 *534:X *21:8 48.755 
2 *21:8 sine_out[6] 21.8231 
*END

*D_NET *22 0.0018325
*CONN
*P sine_out[7] O
*I *535:X O *D sg13g2_buf_2
*CAP
1 sine_out[7] 4.4563e-05
2 *535:X 0.000863986
3 *22:10 0.000908549
4 sine_out[7] sine_out[8] 0
5 *22:10 sine_out[8] 0
6 *22:10 *23:10 0
7 *22:10 *95:14 1.54008e-05
8 sine_out[6] sine_out[7] 0
*RES
1 *535:X *22:10 49.3892 
2 *22:10 sine_out[7] 20.4841 
*END

*D_NET *23 0.00204089
*CONN
*P sine_out[8] O
*I *537:X O *D sg13g2_buf_2
*CAP
1 sine_out[8] 0.000398548
2 *537:X 0.000621899
3 *23:10 0.00102045
4 sine_out[8] sine_out[9] 0
5 *23:10 sine_out[9] 0
6 *23:10 *185:14 0
7 sine_out[7] sine_out[8] 0
8 *22:10 sine_out[8] 0
9 *22:10 *23:10 0
*RES
1 *537:X *23:10 46.2315 
2 *23:10 sine_out[8] 21.0826 
*END

*D_NET *24 0.00179373
*CONN
*P sine_out[9] O
*I *538:X O *D sg13g2_buf_2
*CAP
1 sine_out[9] 0.000896865
2 *538:X 0.000896865
3 sine_out[9] *409:A 0
4 sine_out[10] sine_out[9] 0
5 sine_out[8] sine_out[9] 0
6 *23:10 sine_out[9] 0
*RES
1 *538:X sine_out[9] 29.7335 
*END

*D_NET *25 0.0015482
*CONN
*I *495:D I *D sg13g2_dfrbpq_1
*I *371:Y O *D sg13g2_nor2_1
*CAP
1 *495:D 0
2 *371:Y 0.000459315
3 *25:10 0.000459315
4 *25:10 *371:A 0.00027467
5 *25:10 *371:B 0.000307126
6 *25:10 *150:8 4.77702e-05
7 *25:10 *171:39 0
*RES
1 *371:Y *25:10 45.3663 
2 *25:10 *495:D 40 
*END

*D_NET *26 0.000201477
*CONN
*I *494:D I *D sg13g2_dfrbpq_1
*I *362:Y O *D sg13g2_xnor2_1
*CAP
1 *494:D 7.68674e-05
2 *362:Y 7.68674e-05
3 *494:D *49:12 0
4 *494:D *190:10 4.77425e-05
*RES
1 *362:Y *494:D 40.9167 
*END

*D_NET *27 0.00130949
*CONN
*I *502:A I *D sg13g2_buf_8
*I *503:A I *D sg13g2_buf_2
*I *495:Q O *D sg13g2_dfrbpq_1
*CAP
1 *502:A 0.000228537
2 *503:A 0
3 *495:Q 0.000190905
4 *27:12 0.000228537
5 *27:10 0.000190905
6 *502:A *173:39 0
7 *27:10 *341:A 0
8 *27:10 *349:B1 0
9 *27:10 *518:A 0
10 *27:10 *194:10 0.000235556
11 *27:10 *211:10 0.000235055
*RES
1 *495:Q *27:10 42.4926 
2 *27:10 *27:12 20 
3 *27:12 *503:A 20 
4 *27:12 *502:A 22.266 
*END

*D_NET *28 0.00400746
*CONN
*I *396:A2 I *D sg13g2_o21ai_1
*I *422:C I *D sg13g2_nand3_1
*I *521:A I *D sg13g2_buf_8
*I *524:A I *D sg13g2_dlygate4sd3_1
*I *487:Q O *D sg13g2_dfrbpq_2
*CAP
1 *396:A2 0.000214884
2 *422:C 2.77263e-05
3 *521:A 0
4 *524:A 0
5 *487:Q 0.000436347
6 *28:34 0.000459498
7 *28:27 0.000551804
8 *28:12 0.000485607
9 *28:8 0.000587038
10 *396:A2 *205:8 0.000112418
11 *396:A2 *210:50 8.01995e-05
12 *396:A2 *212:62 0
13 *396:A2 *212:77 1.54008e-05
14 *422:C *212:62 0
15 *28:8 *158:12 0
16 *28:8 *161:10 0
17 *28:8 *163:12 0
18 *28:8 *192:97 0
19 *28:8 *213:30 0
20 *28:12 *158:12 0.000239839
21 *28:12 *210:10 0
22 *28:12 *210:18 1.53835e-05
23 *28:27 *128:14 0.000111711
24 *28:27 *158:12 0.000128595
25 *28:27 *163:12 0
26 *28:27 *201:10 0.000397034
27 *28:27 *210:18 0.000143979
28 *28:34 *89:12 0
29 *28:34 *128:35 0
30 *28:34 *193:76 0
31 *28:34 *214:10 0
*RES
1 *487:Q *28:8 44.0582 
2 *28:8 *28:12 21.6171 
3 *28:12 *524:A 20 
4 *28:12 *28:27 43.673 
5 *28:27 *521:A 20 
6 *28:27 *28:34 1.7996 
7 *28:34 *422:C 20.3502 
8 *28:34 *396:A2 22.1836 
*END

*D_NET *29 0.000549555
*CONN
*I *520:A I *D sg13g2_buf_8
*I *488:Q O *D sg13g2_dfrbpq_1
*CAP
1 *520:A 0.000169899
2 *488:Q 0.000169899
3 *520:A *371:B 0
4 *520:A *128:14 0.000209756
*RES
1 *488:Q *520:A 41.751 
*END

*D_NET *30 0.00034021
*CONN
*I *488:D I *D sg13g2_dfrbpq_1
*I *475:Y O *D sg13g2_xnor2_1
*CAP
1 *488:D 0.000170105
2 *475:Y 0.000170105
3 *488:D *479:A 0
4 *488:D *487:CLK 0
*RES
1 *475:Y *488:D 41.6171 
*END

*D_NET *31 0.000703904
*CONN
*I *518:A I *D sg13g2_buf_2
*I *489:Q O *D sg13g2_dfrbpq_1
*CAP
1 *518:A 0.00029557
2 *489:Q 0.00029557
3 *518:A *349:B1 0.000112763
4 *27:10 *518:A 0
*RES
1 *489:Q *518:A 42.9046 
*END

*D_NET *32 0.00112838
*CONN
*I *489:D I *D sg13g2_dfrbpq_1
*I *476:X O *D sg13g2_xor2_1
*CAP
1 *489:D 0.000475411
2 *476:X 0.000475411
3 *489:D *476:B 0.000177555
4 *489:D *486:A 0
5 *489:D *495:RESET_B 0
6 *489:D *137:23 0
*RES
1 *476:X *489:D 44.944 
*END

*D_NET *33 0.00690249
*CONN
*I *514:A I *D sg13g2_buf_8
*I *513:A I *D sg13g2_buf_2
*I *515:A I *D sg13g2_buf_1
*I *490:Q O *D sg13g2_dfrbpq_2
*CAP
1 *514:A 7.98343e-05
2 *513:A 0
3 *515:A 0
4 *490:Q 0.000789548
5 *33:29 0.000263715
6 *33:16 0.00111278
7 *33:10 0.00171845
8 *514:A *490:RESET_B 0.0001122
9 *33:10 *510:A 0
10 *33:10 *35:19 0.00119808
11 *33:10 *170:30 0
12 *33:16 *358:A 0
13 *33:16 *509:A 0.000288571
14 *33:16 *35:19 0.000585013
15 *33:16 *147:12 0
16 *33:16 *163:12 0
17 *33:16 *170:30 0
18 *33:16 *201:10 0
19 *33:16 *201:28 0.000209641
20 *33:16 *206:10 0
21 *33:16 *206:12 0
22 *33:29 *465:A1 0.00010648
23 *33:29 *147:14 0.00039042
24 *33:29 *193:76 0
25 *33:29 *197:10 0
26 *33:29 *201:28 4.77425e-05
*RES
1 *490:Q *33:10 49.3833 
2 *33:10 *33:16 28.7344 
3 *33:16 *515:A 20 
4 *33:16 *33:29 42.8943 
5 *33:29 *513:A 20 
6 *33:10 *514:A 40.7519 
*END

*D_NET *34 0.00265217
*CONN
*I *490:D I *D sg13g2_dfrbpq_2
*I *477:X O *D sg13g2_xor2_1
*CAP
1 *490:D 0
2 *477:X 0.000303011
3 *34:10 0.000303011
4 *34:10 *349:A2 0.000553748
5 *34:10 *477:B 0.000517902
6 *34:10 *480:A 0.000530647
7 *34:10 *517:A 0.00020871
8 *34:10 *46:8 0
9 *34:10 *187:30 0.000235141
*RES
1 *477:X *34:10 45.459 
2 *34:10 *490:D 40 
*END

*D_NET *35 0.00545996
*CONN
*I *511:A I *D sg13g2_buf_1
*I *509:A I *D sg13g2_buf_8
*I *510:A I *D sg13g2_buf_8
*I *491:Q O *D sg13g2_dfrbpq_2
*CAP
1 *511:A 7.05956e-05
2 *509:A 0.000135429
3 *510:A 0.000326657
4 *491:Q 2.91419e-05
5 *35:19 0.000912238
6 *35:6 0.00106201
7 *509:A *45:8 0
8 *509:A *187:24 8.02269e-05
9 *509:A *206:33 0
10 *511:A *340:A 0.000112684
11 *511:A *131:10 0
12 *511:A *194:34 0
13 *35:19 *141:14 0.00065931
14 *35:19 *197:10 0
15 *3:9 *35:19 0
16 *33:10 *510:A 0
17 *33:10 *35:19 0.00119808
18 *33:16 *509:A 0.000288571
19 *33:16 *35:19 0.000585013
*RES
1 *491:Q *35:6 20.3502 
2 *35:6 *510:A 23.3475 
3 *35:6 *35:19 30.3103 
4 *35:19 *509:A 41.8746 
5 *35:19 *511:A 40.7519 
*END

*D_NET *36 0.00151893
*CONN
*I *491:D I *D sg13g2_dfrbpq_2
*I *478:X O *D sg13g2_xor2_1
*CAP
1 *491:D 0.000582117
2 *478:X 0.000582117
3 *491:D *478:B 0.000306782
4 *491:D *490:RESET_B 0
5 *491:D *493:RESET_B 0
6 *491:D *142:12 0
7 *491:D *173:39 0
8 *491:D *194:34 4.79124e-05
*RES
1 *478:X *491:D 46.0461 
*END

*D_NET *37 0.000323096
*CONN
*I *507:A I *D sg13g2_buf_8
*I *492:Q O *D sg13g2_dfrbpq_1
*CAP
1 *507:A 0.000161548
2 *492:Q 0.000161548
3 *3:9 *507:A 0
*RES
1 *492:Q *507:A 41.751 
*END

*D_NET *38 0.000733795
*CONN
*I *492:D I *D sg13g2_dfrbpq_1
*I *352:X O *D sg13g2_xor2_1
*CAP
1 *492:D 0.000302913
2 *352:X 0.000302913
3 *492:D *352:B 4.77425e-05
4 *492:D *119:16 0
5 *492:D *194:34 0
6 *492:D *195:77 8.02269e-05
*RES
1 *352:X *492:D 43.3269 
*END

*D_NET *39 0.000808985
*CONN
*I *505:A I *D sg13g2_buf_8
*I *493:Q O *D sg13g2_dfrbpq_1
*CAP
1 *505:A 0.000380621
2 *493:Q 0.000380621
3 *505:A *484:A 4.77425e-05
4 *3:9 *505:A 0
*RES
1 *493:Q *505:A 44.1612 
*END

*D_NET *40 0.00234799
*CONN
*I *493:D I *D sg13g2_dfrbpq_1
*I *355:Y O *D sg13g2_xnor2_1
*CAP
1 *493:D 0
2 *355:Y 0.000292281
3 *40:10 0.000292281
4 *40:10 *353:A2 0.000647485
5 *40:10 *119:8 0.000606364
6 *40:10 *142:12 0.000235141
7 *40:10 *195:77 0.00027444
8 *40:10 *207:22 0
*RES
1 *355:Y *40:10 44.8719 
2 *40:10 *493:D 40 
*END

*D_NET *41 0.002599
*CONN
*I *408:A I *D sg13g2_nand2_1
*I *376:A I *D sg13g2_nor2_1
*I *345:A1 I *D sg13g2_o21ai_1
*I *487:D I *D sg13g2_dfrbpq_2
*I *336:Y O *D sg13g2_inv_2
*CAP
1 *408:A 0.000120911
2 *376:A 0
3 *345:A1 0
4 *487:D 0
5 *336:Y 4.99792e-05
6 *41:32 0.000561795
7 *41:19 0.000347704
8 *41:6 0.000838566
9 *408:A *161:10 0.000127526
10 *408:A *163:12 0
11 *41:6 *375:A 0
12 *41:19 *343:A 0
13 *41:19 *345:A2 1.54008e-05
14 *41:19 *475:A 0
15 *41:19 *487:RESET_B 0
16 *41:19 *162:10 0
17 *41:32 *336:A 0
18 *41:32 *393:B 0
19 *41:32 *394:B1 0.000233041
20 *41:32 *394:A2 0.000177499
21 *41:32 *487:RESET_B 1.54008e-05
22 *41:32 *162:10 0.000111177
23 *41:32 *215:14 0
*RES
1 *336:Y *41:6 20.5974 
2 *41:6 *487:D 20 
3 *41:6 *41:19 43.4196 
4 *41:19 *345:A1 20 
5 *41:6 *41:32 24.4496 
6 *41:32 *376:A 40 
7 *41:32 *408:A 41.0918 
*END

*D_NET *42 0.0006511
*CONN
*I *487:RESET_B I *D sg13g2_dfrbpq_2
*I *337:Y O *D sg13g2_inv_1
*CAP
1 *487:RESET_B 0.00031785
2 *337:Y 0.00031785
3 *487:RESET_B *345:B1 0
4 *487:RESET_B *375:B 0
5 *41:19 *487:RESET_B 0
6 *41:32 *487:RESET_B 1.54008e-05
*RES
1 *337:Y *487:RESET_B 43.6874 
*END

*D_NET *43 0.000433731
*CONN
*I *488:RESET_B I *D sg13g2_dfrbpq_1
*I *479:Y O *D sg13g2_inv_1
*CAP
1 *488:RESET_B 0.000176681
2 *479:Y 0.000176681
3 *488:RESET_B *494:CLK 8.03692e-05
*RES
1 *479:Y *488:RESET_B 42.1218 
*END

*D_NET *44 0.00229551
*CONN
*I *489:RESET_B I *D sg13g2_dfrbpq_1
*I *480:Y O *D sg13g2_inv_1
*CAP
1 *489:RESET_B 0.000376438
2 *480:Y 0.000348127
3 *44:8 0.000724565
4 *489:RESET_B *477:B 0
5 *489:RESET_B *477:A 8.00842e-05
6 *489:RESET_B *497:A 0
7 *489:RESET_B *517:A 0
8 *489:RESET_B *187:38 0
9 *44:8 *349:A2 0.00037131
10 *44:8 *477:B 0.000394981
11 *44:8 *187:30 0
*RES
1 *480:Y *44:8 44.3054 
2 *44:8 *489:RESET_B 43.5638 
*END

*D_NET *45 0.00341441
*CONN
*I *490:RESET_B I *D sg13g2_dfrbpq_2
*I *481:Y O *D sg13g2_inv_1
*CAP
1 *490:RESET_B 0.000541371
2 *481:Y 0.000219007
3 *45:8 0.000760378
4 *490:RESET_B *491:RESET_B 0.000240003
5 *490:RESET_B *173:39 0.00043538
6 *490:RESET_B *202:12 0
7 *45:8 *131:10 0
8 *45:8 *197:10 0.00081882
9 *45:8 *202:27 0.000287256
10 *491:D *490:RESET_B 0
11 *509:A *45:8 0
12 *514:A *490:RESET_B 0.0001122
*RES
1 *481:Y *45:8 43.811 
2 *45:8 *490:RESET_B 45.8607 
*END

*D_NET *46 0.0021687
*CONN
*I *491:RESET_B I *D sg13g2_dfrbpq_2
*I *482:Y O *D sg13g2_inv_1
*CAP
1 *491:RESET_B 0.000167408
2 *482:Y 0.000796942
3 *46:8 0.000964351
4 *491:RESET_B *173:39 0
5 *46:8 *340:A 0
6 *46:8 *349:A2 0
7 *46:8 *358:A 0
8 *46:8 *163:12 0
9 *46:8 *170:30 0
10 *46:8 *187:30 0
11 *46:8 *206:12 0
12 *490:RESET_B *491:RESET_B 0.000240003
13 *3:15 *46:8 0
14 *34:10 *46:8 0
*RES
1 *482:Y *46:8 47.519 
2 *46:8 *491:RESET_B 41.6171 
*END

*D_NET *47 0.00177734
*CONN
*I *492:RESET_B I *D sg13g2_dfrbpq_1
*I *483:Y O *D sg13g2_inv_1
*CAP
1 *492:RESET_B 0.000662857
2 *483:Y 0.000662857
3 *492:RESET_B *483:A 0.000209641
4 *492:RESET_B *492:CLK 0
5 *492:RESET_B *493:RESET_B 0
6 *492:RESET_B *498:A 0.000241983
7 *492:RESET_B *119:16 0
8 *492:RESET_B *142:12 0
9 *492:RESET_B *172:22 0
*RES
1 *483:Y *492:RESET_B 47.0967 
*END

*D_NET *48 0.00162716
*CONN
*I *493:RESET_B I *D sg13g2_dfrbpq_1
*I *484:Y O *D sg13g2_inv_1
*CAP
1 *493:RESET_B 0.000177637
2 *484:Y 0.000545348
3 *48:8 0.000722985
4 *493:RESET_B *142:12 0
5 *493:RESET_B *194:34 0
6 *48:8 *484:A 0
7 *48:8 *140:25 0.000181192
8 *491:D *493:RESET_B 0
9 *492:RESET_B *493:RESET_B 0
*RES
1 *484:Y *48:8 45.2942 
2 *48:8 *493:RESET_B 41.6171 
*END

*D_NET *49 0.00088186
*CONN
*I *494:RESET_B I *D sg13g2_dfrbpq_1
*I *485:Y O *D sg13g2_inv_1
*CAP
1 *494:RESET_B 0
2 *485:Y 0.000325152
3 *49:12 0.000325152
4 *49:12 *150:23 0.000231555
5 *494:D *49:12 0
*RES
1 *485:Y *49:12 43.3063 
2 *49:12 *494:RESET_B 40 
*END

*D_NET *50 0.000372093
*CONN
*I *495:RESET_B I *D sg13g2_dfrbpq_1
*I *486:Y O *D sg13g2_inv_1
*CAP
1 *495:RESET_B 0.000162108
2 *486:Y 0.000162108
3 *495:RESET_B *486:A 4.78769e-05
4 *495:RESET_B *495:CLK 0
5 *489:D *495:RESET_B 0
*RES
1 *486:Y *495:RESET_B 41.6171 
*END

*D_NET *51 0.000510583
*CONN
*I *399:C I *D sg13g2_nor4_1
*I *383:Y O *D sg13g2_a221oi_1
*CAP
1 *399:C 0.000247591
2 *383:Y 0.000247591
3 *399:C *378:A 0
4 *399:C *383:A1 0
5 *399:C *399:A 0
6 *399:C *399:D 0
7 *399:C *101:20 1.54008e-05
*RES
1 *383:Y *399:C 42.2145 
*END

*D_NET *52 0.00426061
*CONN
*I *385:B I *D sg13g2_and2_1
*I *420:A I *D sg13g2_xor2_1
*I *384:Y O *D sg13g2_a22oi_1
*CAP
1 *385:B 0
2 *420:A 0.000386413
3 *384:Y 0.00034324
4 *52:25 0.000373725
5 *52:12 0.000806457
6 *52:8 0.000389559
7 *420:A *375:A 0.000370792
8 *420:A *419:A 0
9 *420:A *442:A1 0
10 *420:A *62:16 0.000241282
11 *420:A *209:36 0.0001122
12 *52:8 *423:B 0
13 *52:8 *89:20 0
14 *52:8 *110:16 0
15 *52:8 *209:20 0.000177739
16 *52:8 *209:26 0.000598413
17 *52:12 *68:10 0
18 *52:12 *209:26 3.23417e-05
19 *52:12 *209:36 1.54008e-05
20 *52:25 *423:B 0
21 *52:25 *53:8 0
22 *52:25 *69:31 0
23 *52:25 *201:94 0.00023547
24 *52:25 *204:21 0
25 *52:25 *204:44 0.000177583
*RES
1 *384:Y *52:8 43.811 
2 *52:8 *52:12 20.5356 
3 *52:12 *420:A 23.9964 
4 *52:12 *52:25 43.3166 
5 *52:25 *385:B 20 
*END

*D_NET *53 0.00366151
*CONN
*I *391:B1 I *D sg13g2_a21oi_1
*I *402:A1 I *D sg13g2_o21ai_1
*I *385:X O *D sg13g2_and2_1
*CAP
1 *391:B1 0.000866792
2 *402:A1 6.03029e-05
3 *385:X 0.000244892
4 *53:10 0.000927095
5 *53:8 0.000244892
6 *391:B1 *386:B_N 4.77425e-05
7 *391:B1 *404:B1 0
8 *391:B1 *404:A2 0
9 *391:B1 *461:B1 0
10 *391:B1 *58:21 0
11 *391:B1 *59:14 0
12 *391:B1 *68:44 1.54008e-05
13 *391:B1 *69:31 3.23417e-05
14 *391:B1 *87:10 0.000338192
15 *391:B1 *199:52 0.00024184
16 *391:B1 *199:58 0.000273624
17 *391:B1 *199:79 0
18 *391:B1 *200:53 4.77702e-05
19 *391:B1 *201:82 4.77425e-05
20 *391:B1 *201:84 8.00842e-05
21 *402:A1 *69:12 1.54008e-05
22 *402:A1 *69:31 8.00842e-05
23 *53:8 *69:31 7.51285e-05
24 *53:8 *70:10 0
25 *53:8 *90:8 2.21831e-05
26 *52:25 *53:8 0
*RES
1 *385:X *53:8 42.0806 
2 *53:8 *53:10 20 
3 *53:10 *402:A1 20.5356 
4 *53:10 *391:B1 28.7138 
*END

*D_NET *54 0.00366337
*CONN
*I *446:A1 I *D sg13g2_a22oi_1
*I *392:A I *D sg13g2_nand2_1
*I *386:Y O *D sg13g2_nor2b_1
*CAP
1 *446:A1 0
2 *392:A 0
3 *386:Y 6.34381e-05
4 *54:37 0.000583741
5 *54:24 0.00062175
6 *54:12 0.00129505
7 *54:8 0.000153
8 *54:8 *366:A 0
9 *54:12 *540:A 0
10 *54:12 *200:20 0.0001447
11 *54:24 *366:A 0
12 *54:24 *392:B 0.00037204
13 *54:24 *416:A2 0
14 *54:24 *417:A1 0
15 *54:24 *417:B1 0
16 *54:24 *540:A 0
17 *54:24 *59:14 0
18 *54:24 *67:16 7.51285e-05
19 *54:24 *154:10 0.000209641
20 *54:24 *200:20 6.4771e-05
21 *54:24 *200:30 8.01118e-05
22 *54:37 *366:A 0
23 *54:37 *431:A_N 0
24 *54:37 *451:B2 0
25 *54:37 *67:16 0
26 *54:37 *88:10 0
27 *54:37 *112:10 0
28 *54:37 *199:50 0
29 *7:8 *54:24 0
*RES
1 *386:Y *54:8 40.5974 
2 *54:8 *54:12 20.9682 
3 *54:12 *54:24 46.9628 
4 *54:24 *392:A 20 
5 *54:12 *54:37 44.5938 
6 *54:37 *446:A1 20 
*END

*D_NET *55 0.00473615
*CONN
*I *448:B I *D sg13g2_nor3_1
*I *425:A1 I *D sg13g2_o21ai_1
*I *387:Y O *D sg13g2_nand2b_1
*CAP
1 *448:B 0.000963073
2 *425:A1 5.98797e-05
3 *387:Y 0.000174636
4 *55:14 0.00119759
5 *425:A1 *425:A2 3.15716e-05
6 *425:A1 *85:14 0
7 *448:B *407:B 0.000208035
8 *448:B *407:C 0
9 *448:B *423:B 0.000314706
10 *448:B *448:A 1.54008e-05
11 *448:B *62:26 0
12 *448:B *74:16 0.000386165
13 *448:B *74:33 0
14 *448:B *85:14 7.33256e-05
15 *448:B *89:12 0
16 *448:B *89:20 0
17 *448:B *94:12 0.000280657
18 *448:B *114:10 0.000208035
19 *448:B *160:21 0
20 *448:B *204:67 7.30101e-05
21 *448:B *214:42 0.000230297
22 *448:B *214:57 5.27974e-05
23 *55:14 *423:B 0.000180368
24 *55:14 *69:31 8.02269e-05
25 *55:14 *85:14 0.00012601
26 *55:14 *87:10 8.03692e-05
27 *55:14 *197:38 0
*RES
1 *387:Y *55:14 42.266 
2 *55:14 *425:A1 40.5356 
3 *55:14 *448:B 49.4554 
*END

*D_NET *56 0.00309744
*CONN
*I *438:A I *D sg13g2_nor3_1
*I *389:B I *D sg13g2_nor2_1
*I *388:Y O *D sg13g2_nor2b_1
*CAP
1 *438:A 0.000680373
2 *389:B 0.000633795
3 *388:Y 0.000234551
4 *56:8 0.00154872
5 *389:B *389:A 0
6 *389:B *181:14 0
7 *389:B *182:14 0
8 *438:A *95:14 0
9 *438:A *104:8 0
10 *438:A *153:68 0
11 *438:A *182:14 0
12 *438:A *185:14 0
13 *56:8 *182:14 0
14 sine_out[1] *389:B 0
15 sine_out[2] *389:B 0
*RES
1 *388:Y *56:8 42.0497 
2 *56:8 *389:B 46.7465 
3 *56:8 *438:A 46.0461 
*END

*D_NET *57 0.0047608
*CONN
*I *391:A1 I *D sg13g2_a21oi_1
*I *403:A I *D sg13g2_xnor2_1
*I *389:Y O *D sg13g2_nor2_1
*CAP
1 *391:A1 0.000101578
2 *403:A 0.000462692
3 *389:Y 0.0004661
4 *57:12 0.00103037
5 *391:A1 *366:A 0.000210293
6 *391:A1 *461:B1 0
7 *391:A1 *58:21 1.54008e-05
8 *391:A1 *59:14 0
9 *391:A1 *177:8 0.000233865
10 *403:A *386:B_N 3.23417e-05
11 *403:A *68:44 0.000176394
12 *403:A *199:52 0.000112614
13 *403:A *199:58 0
14 *403:A *200:18 0
15 *403:A *200:20 0.000144841
16 *403:A *200:30 0.000339008
17 *57:12 *366:A 0.00023174
18 *57:12 *389:A 0
19 *57:12 *529:A 4.77702e-05
20 *57:12 *530:A 0
21 *57:12 *177:8 0.000498059
22 *57:12 *181:14 0
23 *57:12 *190:28 0.000209669
24 *57:12 *200:8 0
25 *57:12 *200:105 0
26 *57:12 *212:118 0
27 signB *57:12 0.000112569
28 sine_out[1] *57:12 0
29 *7:8 *57:12 0.000287758
30 *16:10 *57:12 4.77425e-05
*RES
1 *389:Y *57:12 46.2727 
2 *57:12 *403:A 44.6659 
3 *57:12 *391:A1 41.7613 
*END

*D_NET *58 0.00387292
*CONN
*I *391:A2 I *D sg13g2_a21oi_1