*SPEF "ieee 1481-1999"
*DESIGN "DigitalSine"
*DATE "17:29:13 Monday December 15, 2025"
*VENDOR "The OpenROAD Project"
*PROGRAM "OpenROAD"
*VERSION "341650e72dad0dc8571822ff8c5d9c5e365327f7"
*DESIGN_FLOW "NAME_SCOPE LOCAL" "PIN_CAP NONE"
*DIVIDER /
*DELIMITER :
*BUS_DELIMITER []
*T_UNIT 1 NS
*C_UNIT 1 PF
*R_UNIT 1 OHM
*L_UNIT 1 HENRY

*NAME_MAP
*3 clk
*4 rst
*5 sign
*6 signB
*7 sine_out[0]
*8 sine_out[10]
*9 sine_out[11]
*10 sine_out[12]
*11 sine_out[13]
*12 sine_out[14]
*13 sine_out[15]
*14 sine_out[16]
*15 sine_out[17]
*16 sine_out[18]
*17 sine_out[19]
*18 sine_out[1]
*19 sine_out[20]
*20 sine_out[21]
*21 sine_out[22]
*22 sine_out[23]
*23 sine_out[24]
*24 sine_out[25]
*25 sine_out[26]
*26 sine_out[27]
*27 sine_out[28]
*28 sine_out[29]
*29 sine_out[2]
*30 sine_out[30]
*31 sine_out[31]
*32 sine_out[32]
*33 sine_out[3]
*34 sine_out[4]
*35 sine_out[5]
*36 sine_out[6]
*37 sine_out[7]
*38 sine_out[8]
*39 sine_out[9]
*40 CTRL\.P0
*41 CTRL\.P1
*42 CTRL\.S0
*43 DPATH\.SUM\.Cout0
*44 DPATH\.SUM\.fa_1\.A
*45 DPATH\.SUM\.fa_1\.S
*46 DPATH\.SUM\.fa_2\.A
*47 DPATH\.SUM\.fa_2\.S
*48 DPATH\.SUM\.fa_3\.A
*49 DPATH\.SUM\.fa_3\.S
*50 DPATH\.SUM\.fa_4\.A
*51 DPATH\.SUM\.fa_4\.S
*52 DPATH\.SUM\.fa_5\.A
*53 DPATH\.SUM\.fa_5\.S
*54 DPATH\.SUM\.fa_6\.A
*55 DPATH\.SUM\.fa_6\.S
*56 DPATH\.SUM\.ha_0\.S
*57 _000_
*58 _001_
*59 _002_
*60 _003_
*61 _004_
*62 _005_
*63 _006_
*64 _007_
*65 _008_
*66 _009_
*67 _010_
*68 _011_
*69 _012_
*70 _013_
*71 _014_
*72 _015_
*73 _016_
*74 _017_
*75 _018_
*76 _019_
*77 _020_
*78 _021_
*79 _022_
*80 _023_
*81 _024_
*82 _025_
*83 _026_
*84 _027_
*85 _028_
*86 _029_
*87 _030_
*88 _031_
*89 _032_
*90 _033_
*91 _034_
*92 _035_
*93 _036_
*94 _037_
*95 _038_
*96 _039_
*97 _040_
*98 _041_
*99 _042_
*100 _043_
*101 _044_
*102 _045_
*103 _046_
*104 _047_
*105 _048_
*106 _049_
*107 _050_
*108 _051_
*109 _052_
*110 _053_
*111 _054_
*112 _055_
*113 _056_
*114 _057_
*115 _058_
*116 _059_
*117 _060_
*118 _061_
*119 _062_
*120 _063_
*121 _064_
*122 _065_
*123 _066_
*124 _067_
*125 _068_
*126 _069_
*127 _070_
*128 _071_
*129 _072_
*130 _073_
*131 _074_
*132 _075_
*133 _076_
*134 _077_
*135 _078_
*136 _079_
*137 _080_
*138 _081_
*139 _082_
*140 _083_
*141 _084_
*142 _085_
*143 _086_
*144 _087_
*145 _088_
*146 _089_
*147 _090_
*148 _091_
*149 _092_
*150 _093_
*151 _094_
*152 _095_
*153 _096_
*154 _097_
*155 _098_
*156 _099_
*157 _100_
*158 _101_
*159 _102_
*160 _103_
*161 _104_
*162 _105_
*163 _106_
*164 _107_
*165 _108_
*166 _109_
*167 _110_
*168 _111_
*169 _112_
*170 _113_
*171 _114_
*172 _115_
*173 _116_
*174 _117_
*175 _118_
*176 _119_
*177 _120_
*178 _121_
*179 _122_
*180 _123_
*181 _124_
*182 clknet_0_clk
*183 clknet_1_0__leaf_clk
*184 clknet_1_1__leaf_clk
*185 net1
*186 net10
*187 net11
*188 net12
*189 net13
*190 net14
*191 net15
*192 net16
*193 net17
*194 net18
*195 net19
*196 net2
*197 net20
*198 net21
*199 net22
*200 net23
*201 net24
*202 net25
*203 net26
*204 net27
*205 net28
*206 net29
*207 net3
*208 net30
*209 net31
*210 net32
*211 net33
*212 net34
*213 net35
*214 net36
*215 net37
*216 net38
*217 net39
*218 net4
*219 net5
*220 net52
*221 net53
*222 net54
*223 net55
*224 net56
*225 net57
*226 net58
*227 net59
*228 net6
*229 net60
*230 net61
*231 net62
*232 net63
*233 net64
*234 net65
*235 net66
*236 net67
*237 net68
*238 net69
*239 net7
*240 net70
*241 net71
*242 net72
*243 net73
*244 net74
*245 net75
*246 net76
*247 net77
*248 net8
*249 net9
*250 FILLER_0_0
*251 FILLER_0_106
*252 FILLER_0_11
*253 FILLER_0_113
*254 FILLER_0_117
*255 FILLER_0_35
*256 FILLER_0_69
*257 FILLER_0_7
*258 FILLER_0_92
*259 FILLER_0_99
*260 FILLER_10_108
*261 FILLER_10_110
*262 FILLER_10_116
*263 FILLER_10_118
*264 FILLER_10_16
*265 FILLER_10_27
*266 FILLER_10_29
*267 FILLER_10_61
*268 FILLER_10_63
*269 FILLER_10_78
*270 FILLER_10_92
*271 FILLER_11_117
*272 FILLER_11_5
*273 FILLER_11_83
*274 FILLER_11_85
*275 FILLER_11_90
*276 FILLER_12_103
*277 FILLER_12_118
*278 FILLER_12_27
*279 FILLER_12_39
*280 FILLER_12_41
*281 FILLER_12_60
*282 FILLER_12_81
*283 FILLER_13_0
*284 FILLER_13_118
*285 FILLER_13_24
*286 FILLER_13_46
*287 FILLER_13_70
*288 FILLER_13_81
*289 FILLER_14_0
*290 FILLER_14_2
*291 FILLER_1_0
*292 FILLER_1_104
*293 FILLER_1_111
*294 FILLER_1_7
*295 FILLER_2_103
*296 FILLER_2_112
*297 FILLER_2_118
*298 FILLER_2_5
*299 FILLER_2_51
*300 FILLER_3_0
*301 FILLER_3_118
*302 FILLER_3_14
*303 FILLER_3_21
*304 FILLER_3_35
*305 FILLER_3_41
*306 FILLER_3_7
*307 FILLER_4_0
*308 FILLER_4_100
*309 FILLER_4_11
*310 FILLER_4_118
*311 FILLER_4_7
*312 FILLER_4_73
*313 FILLER_4_75
*314 FILLER_5_0
*315 FILLER_5_21
*316 FILLER_5_38
*317 FILLER_6_0
*318 FILLER_6_18
*319 FILLER_6_36
*320 FILLER_6_89
*321 FILLER_6_91
*322 FILLER_7_0
*323 FILLER_7_2
*324 FILLER_7_20
*325 FILLER_7_27
*326 FILLER_7_42
*327 FILLER_7_56
*328 FILLER_7_74
*329 FILLER_7_76
*330 FILLER_8_118
*331 FILLER_8_5
*332 FILLER_8_51
*333 FILLER_8_72
*334 FILLER_8_89
*335 FILLER_8_91
*336 FILLER_9_0
*337 FILLER_9_100
*338 FILLER_9_13
*339 FILLER_9_15
*340 FILLER_9_2
*341 FILLER_9_35
*342 FILLER_9_87
*343 _125_
*344 _126_
*345 _127_
*346 _128_
*347 _129_
*348 _130_
*349 _131_
*350 _132_
*351 _133_
*352 _134_
*353 _135_
*354 _136_
*355 _137_
*356 _138_
*357 _139_
*358 _140_
*359 _141_
*360 _142_
*361 _143_
*362 _144_
*363 _145_
*364 _146_
*365 _147_
*366 _148_
*367 _149_
*368 _150_
*369 _151_
*370 _152_
*371 _153_
*372 _154_
*373 _155_
*374 _156_
*375 _157_
*376 _158_
*377 _159_
*378 _160_
*379 _161_
*380 _162_
*381 _163_
*382 _164_
*383 _165_
*384 _166_
*385 _167_
*386 _168_
*387 _169_
*388 _170_
*389 _171_
*390 _172_
*391 _173_
*392 _174_
*393 _175_
*394 _176_
*395 _177_
*396 _178_
*397 _179_
*398 _180_
*399 _181_
*400 _182_
*401 _183_
*402 _184_
*403 _185_
*404 _186_
*405 _187_
*406 _188_
*407 _189_
*408 _190_
*409 _191_
*410 _192_
*411 _193_
*412 _194_
*413 _195_
*414 _196_
*415 _197_
*416 _198_
*417 _199_
*418 _200_
*419 _201_
*420 _202_
*421 _203_
*422 _204_
*423 _205_
*424 _206_
*425 _207_
*426 _208_
*427 _209_
*428 _210_
*429 _211_
*430 _212_
*431 _213_
*432 _214_
*433 _215_
*434 _216_
*435 _217_
*436 _218_
*437 _219_
*438 _220_
*439 _221_
*440 _222_
*441 _223_
*442 _224_
*443 _225_
*444 _226_
*445 _227_
*446 _228_
*447 _229_
*448 _230_
*449 _231_
*450 _232_
*451 _233_
*452 _234_
*453 _235_
*454 _236_
*455 _237_
*456 _238_
*457 _239_
*458 _240_
*459 _241_
*460 _242_
*461 _243_
*462 _244_
*463 _245_
*464 _246_
*465 _247_
*466 _248_
*467 _249_
*468 _250_
*469 _251_
*470 _252_
*471 _253_
*472 _254_
*473 _255_
*474 _256_
*475 _257_
*476 _258_
*477 _259_
*478 _260_
*479 _261_
*480 _262_
*481 _263_
*482 _264_
*483 _265_
*484 _266_
*485 _267_
*486 _268_
*487 _269_
*488 _270_
*489 _271_
*490 _272_
*491 _273_
*492 _274_
*493 _275_
*494 _276_
*495 _277_
*496 _278_
*497 _279_
*498 _280_
*499 _281_
*500 _282_
*501 _283_
*502 _284_
*503 _285_
*504 _286_
*505 _287_
*506 _288_
*507 _289_
*508 _290_
*509 _291_
*510 _292_
*511 _293_
*512 _294_
*513 _295_
*514 _296_
*515 _297_
*516 _298_
*517 _299_
*518 _300_
*519 _301_
*520 clkbuf_0_clk
*521 clkbuf_1_0__f_clk
*522 clkbuf_1_1__f_clk
*523 clkload0
*524 fanout37
*525 fanout52
*526 fanout53
*527 fanout54
*528 fanout55
*529 fanout56
*530 fanout57
*531 fanout58
*532 fanout59
*533 fanout60
*534 fanout61
*535 fanout62
*536 fanout63
*537 fanout64
*538 fanout65
*539 fanout66
*540 fanout67
*541 fanout68
*542 fanout69
*543 fanout70
*544 fanout71
*545 fanout72
*546 fanout73
*547 fanout74
*548 fanout75
*549 fanout76
*550 fanout77
*551 hold1
*552 hold2
*553 input1
*554 output10
*555 output11
*556 output12
*557 output13
*558 output14
*559 output15
*560 output16
*561 output17
*562 output18
*563 output19
*564 output2
*565 output20
*566 output21
*567 output22
*568 output23
*569 output24
*570 output25
*571 output26
*572 output27
*573 output28
*574 output29
*575 output3
*576 output30
*577 output31
*578 output32
*579 output33
*580 output34
*581 output35
*582 output36
*583 output4
*584 output5
*585 output6
*586 output7
*587 output8
*588 output9

*PORTS
clk I
rst I
sign O
signB O
sine_out[0] O
sine_out[10] O
sine_out[11] O
sine_out[12] O
sine_out[13] O
sine_out[14] O
sine_out[15] O
sine_out[16] O
sine_out[17] O
sine_out[18] O
sine_out[19] O
sine_out[1] O
sine_out[20] O
sine_out[21] O
sine_out[22] O
sine_out[23] O
sine_out[24] O
sine_out[25] O
sine_out[26] O
sine_out[27] O
sine_out[28] O
sine_out[29] O
sine_out[2] O
sine_out[30] O
sine_out[31] O
sine_out[32] O
sine_out[3] O
sine_out[4] O
sine_out[5] O
sine_out[6] O
sine_out[7] O
sine_out[8] O
sine_out[9] O

*D_NET *3 0.00967731
*CONN
*P clk I
*I *520:A I *D sg13g2_buf_8
*CAP
1 clk 0.00247119
2 *520:A 0.000848595
3 *3:21 0.00331979
4 *520:A *422:B 0
5 *520:A *422:A 4.77425e-05
6 *520:A *549:A 0.000209756
7 *520:A *90:8 0.00056407
8 *520:A *221:84 0
9 *520:A *236:66 0
10 *520:A *238:8 0
11 *520:A *240:37 0.00027489
12 *3:21 *374:B 8.01118e-05
13 *3:21 *374:A_N 0
14 *3:21 *387:B 0
15 *3:21 *402:A2 0.000474803
16 *3:21 *406:A 0
17 *3:21 *406:B 0.0001122
18 *3:21 *26:10 0.000286382
19 *3:21 *66:39 0
20 *3:21 *68:12 0.000112426
21 *3:21 *69:10 0
22 *3:21 *70:10 0
23 *3:21 *71:10 8.00842e-05
24 *3:21 *76:50 0
25 *3:21 *78:12 0.000231653
26 *3:21 *79:71 0
27 *3:21 *178:16 0.00027444
28 *3:21 *195:10 0
29 *3:21 *199:20 0
30 *3:21 *220:28 0
31 *3:21 *220:123 0
32 *3:21 *225:110 0
33 *3:21 *236:12 0
34 *3:21 *236:14 0
35 *3:21 *236:20 0
36 *3:21 *236:66 0
37 *3:21 *237:39 0
38 *3:21 *237:41 0
39 *3:21 *240:37 0
40 *3:21 *240:48 0.00027379
41 *3:21 *244:38 1.53846e-05
42 *3:21 *244:61 0
*RES
1 clk *3:21 45.15 
2 *3:21 *520:A 28.755 
*END

*D_NET *4 0.000684344
*CONN
*P rst I
*I *553:A I *D sg13g2_buf_1
*CAP
1 rst 0.000342172
2 *553:A 0.000342172
*RES
1 rst *553:A 43.9217 
*END

*D_NET *5 0.000921771
*CONN
*P sign O
*I *564:X O *D sg13g2_buf_2
*CAP
1 sign 0.000460885
2 *564:X 0.000460885
3 sign *196:20 0
*RES
1 *564:X sign 45.0264 
*END

*D_NET *6 0.00207858
*CONN
*P signB O
*I *575:X O *D sg13g2_buf_2
*CAP
1 signB 0.000722814
2 *575:X 0.000722814
3 signB sine_out[0] 0
4 signB *502:B 0.000306666
5 signB *169:16 0.000144985
6 signB *223:44 0
7 signB *223:57 0.000181297
*RES
1 *575:X signB 48.0546 
*END

*D_NET *7 0.00530068
*CONN
*P sine_out[0] O
*I *583:X O *D sg13g2_buf_2
*CAP
1 sine_out[0] 0.00204597
2 *583:X 6.18885e-05
3 *7:8 0.00210786
4 sine_out[0] sine_out[1] 0
5 sine_out[0] *354:B 0
6 sine_out[0] *500:A1 0.000209712
7 sine_out[0] *158:56 0
8 sine_out[0] *158:67 0
9 sine_out[0] *163:24 0.00012785
10 sine_out[0] *168:32 0
11 sine_out[0] *209:24 0.000286123
12 sine_out[0] *210:8 0
13 sine_out[0] *223:57 0
14 sine_out[0] *227:99 0
15 sine_out[0] *233:24 0.000445878
16 *7:8 *220:44 1.54008e-05
17 signB sine_out[0] 0
*RES
1 *583:X *7:8 40.5356 
2 *7:8 sine_out[0] 42.9561 
*END

*D_NET *8 0.00325353
*CONN
*P sine_out[10] O
*I *584:X O *D sg13g2_buf_2
*CAP
1 sine_out[10] 0.000109126
2 *584:X 0.000953023
3 *8:6 0.00106215
4 sine_out[10] sine_out[11] 0
5 sine_out[10] sine_out[9] 0
6 *8:6 sine_out[11] 0.000660023
7 *8:6 sine_out[12] 0
8 *8:6 sine_out[9] 0
9 *8:6 *587:A 0
10 *8:6 *9:10 0
11 *8:6 *10:10 0.000469208
12 *8:6 *163:12 0
*RES
1 *584:X *8:6 30.7017 
2 *8:6 sine_out[10] 41.3364 
*END

*D_NET *9 0.00279087
*CONN
*P sine_out[11] O
*I *585:X O *D sg13g2_buf_2
*CAP
1 sine_out[11] 0.000405054
2 *585:X 0.000652667
3 *9:10 0.00105772
4 sine_out[11] sine_out[12] 0
5 sine_out[11] sine_out[9] 0
6 *9:10 sine_out[9] 0
7 *9:10 *163:12 1.54008e-05
8 sine_out[10] sine_out[11] 0
9 *8:6 sine_out[11] 0.000660023
10 *8:6 *9:10 0
*RES
1 *585:X *9:10 46.2315 
2 *9:10 sine_out[11] 24.5674 
*END

*D_NET *10 0.00265937
*CONN
*P sine_out[12] O
*I *586:X O *D sg13g2_buf_2
*CAP
1 sine_out[12] 0.000559391
2 *586:X 0.000417756
3 *10:10 0.000977147
4 sine_out[12] sine_out[13] 0.000235865
5 *10:10 sine_out[13] 0
6 sine_out[11] sine_out[12] 0
7 *8:6 sine_out[12] 0
8 *8:6 *10:10 0.000469208
*RES
1 *586:X *10:10 44.223 
2 *10:10 sine_out[12] 26.2289 
*END

*D_NET *11 0.00219804
*CONN
*P sine_out[13] O
*I *587:X O *D sg13g2_buf_2
*CAP
1 sine_out[13] 0.000973498
2 *587:X 0.000973498
3 sine_out[13] sine_out[14] 0
4 sine_out[13] *587:A 1.51771e-05
5 sine_out[12] sine_out[13] 0.000235865
6 *10:10 sine_out[13] 0
*RES
1 *587:X sine_out[13] 30.5549 
*END

*D_NET *12 0.00181634
*CONN
*P sine_out[14] O
*I *588:X O *D sg13g2_buf_2
*CAP
1 sine_out[14] 0.00090817
2 *588:X 0.00090817
3 sine_out[14] sine_out[15] 0
4 sine_out[14] *587:A 0
5 sine_out[13] sine_out[14] 0
*RES
1 *588:X sine_out[14] 30.2717 
*END

*D_NET *13 0.00173915
*CONN
*P sine_out[15] O
*I *554:X O *D sg13g2_buf_2
*CAP
1 sine_out[15] 0.000845691
2 *554:X 0.000845691
3 sine_out[15] sine_out[16] 0
4 sine_out[15] *211:36 4.77699e-05
5 sine_out[14] sine_out[15] 0
*RES
1 *554:X sine_out[15] 29.2751 
*END

*D_NET *14 0.00173267
*CONN
*P sine_out[16] O
*I *555:X O *D sg13g2_buf_2
*CAP
1 sine_out[16] 0.000866337
2 *555:X 0.000866337
3 sine_out[16] sine_out[17] 0
4 sine_out[16] *555:A 0
5 sine_out[16] *211:36 0
6 sine_out[15] sine_out[16] 0
*RES
1 *555:X sine_out[16] 21.9711 
*END

*D_NET *15 0.00167485
*CONN
*P sine_out[17] O
*I *556:X O *D sg13g2_buf_2
*CAP
1 sine_out[17] 0.000837426
2 *556:X 0.000837426
3 sine_out[17] sine_out[18] 0
4 sine_out[17] *555:A 0
5 sine_out[17] *556:A 0
6 sine_out[16] sine_out[17] 0
*RES
1 *556:X sine_out[17] 29.2571 
*END

*D_NET *16 0.00171214
*CONN
*P sine_out[18] O
*I *557:X O *D sg13g2_buf_2
*CAP
1 sine_out[18] 0.000844981
2 *557:X 0.000844981
3 sine_out[18] sine_out[19] 0
4 sine_out[18] *556:A 2.21754e-05
5 sine_out[18] *557:A 0
6 sine_out[17] sine_out[18] 0
*RES
1 *557:X sine_out[18] 29.6073 
*END

*D_NET *17 0.00181736
*CONN
*P sine_out[19] O
*I *558:X O *D sg13g2_buf_2
*CAP
1 sine_out[19] 0.000908682
2 *558:X 0.000908682
3 sine_out[19] sine_out[20] 0
4 sine_out[19] sine_out[21] 0
5 sine_out[19] *370:B 0
6 sine_out[19] *557:A 0
7 sine_out[19] *558:A 0
8 sine_out[19] *19:10 0
9 sine_out[18] sine_out[19] 0
*RES
1 *558:X sine_out[19] 30.7558 
*END

*D_NET *18 0.00434314
*CONN
*P sine_out[1] O
*I *559:X O *D sg13g2_buf_2
*CAP
1 sine_out[1] 0.00188796
2 *559:X 0.00188796
3 sine_out[1] sine_out[2] 0
4 sine_out[1] *502:B 0
5 sine_out[1] *559:A 0
6 sine_out[1] *34:10 0
7 sine_out[1] *36:16 0
8 sine_out[1] *169:16 0
9 sine_out[1] *223:44 0.000567221
10 sine_out[1] *223:57 0
11 sine_out[1] *239:10 0
12 sine_out[0] sine_out[1] 0
*RES
1 *559:X sine_out[1] 41.7819 
*END

*D_NET *19 0.00306443
*CONN
*P sine_out[20] O
*I *560:X O *D sg13g2_buf_2
*CAP
1 sine_out[20] 4.2256e-05
2 *560:X 0.000821013
3 *19:10 0.000863269
4 sine_out[20] sine_out[21] 0
5 *19:10 sine_out[21] 0.00133789
6 sine_out[19] sine_out[20] 0
7 sine_out[19] *19:10 0
*RES
1 *560:X *19:10 49.8159 
2 *19:10 sine_out[20] 20.4918 
*END

*D_NET *20 0.00330942
*CONN
*P sine_out[21] O
*I *561:X O *D sg13g2_buf_2
*CAP
1 sine_out[21] 0.00078603
2 *561:X 0.000100978
3 *20:8 0.000887008
4 sine_out[21] sine_out[22] 0
5 sine_out[21] sine_out[23] 0
6 sine_out[21] *560:A 1.54008e-05
7 sine_out[21] *25:12 0
8 *20:8 *192:8 0.00018211
9 *20:8 *213:20 0
10 sine_out[19] sine_out[21] 0
11 sine_out[20] sine_out[21] 0
12 *19:10 sine_out[21] 0.00133789
*RES
1 *561:X *20:8 41.0918 
2 *20:8 sine_out[21] 29.1097 
*END

*D_NET *21 0.00249213
*CONN
*P sine_out[22] O
*I *562:X O *D sg13g2_buf_2
*CAP
1 sine_out[22] 0.000420913
2 *562:X 0.000600007
3 *21:10 0.00102092
4 sine_out[22] sine_out[23] 0
5 *21:10 sine_out[23] 0.000305637
6 *21:10 sine_out[24] 0
7 *21:10 *562:A 0
8 *21:10 *25:12 0
9 *21:10 *198:12 0.000144655
10 sine_out[21] sine_out[22] 0
*RES
1 *562:X *21:10 45.9843 
2 *21:10 sine_out[22] 24.7148 
*END

*D_NET *22 0.00281735
*CONN
*P sine_out[23] O
*I *563:X O *D sg13g2_buf_2
*CAP
1 sine_out[23] 0.000579344
2 *563:X 0.000399339
3 *22:10 0.000978683
4 sine_out[23] sine_out[24] 0
5 sine_out[23] *25:12 4.77699e-05
6 *22:10 sine_out[24] 0
7 *22:10 *557:A 0
8 *22:10 *25:12 0.000394151
9 *22:10 *173:34 0.000112426
10 sine_out[21] sine_out[23] 0
11 sine_out[22] sine_out[23] 0
12 *21:10 sine_out[23] 0.000305637
*RES
1 *563:X *22:10 44.532 
2 *22:10 sine_out[23] 26.6615 
*END

*D_NET *23 0.0024609
*CONN
*P sine_out[24] O
*I *565:X O *D sg13g2_buf_2
*CAP
1 sine_out[24] 0.00110256
2 *565:X 0.00110256
3 sine_out[24] sine_out[25] 0
4 sine_out[24] *562:A 8.00842e-05
5 sine_out[24] *563:A 0.000175693
6 sine_out[24] *198:12 0
7 sine_out[24] *225:100 0
8 sine_out[23] sine_out[24] 0
9 *21:10 sine_out[24] 0
10 *22:10 sine_out[24] 0
*RES
1 *565:X sine_out[24] 27.3975 
*END

*D_NET *24 0.00298959
*CONN
*P sine_out[25] O
*I *566:X O *D sg13g2_buf_2
*CAP
1 sine_out[25] 0.000557139
2 *566:X 0.00071494
3 *24:10 0.00127208
4 sine_out[25] sine_out[26] 0
5 *24:10 sine_out[29] 0.000209871
6 *24:10 sine_out[30] 0
7 *24:10 sine_out[31] 0
8 *24:10 *566:A 0
9 *24:10 *25:12 0.000235556
10 *24:10 *27:10 0
11 sine_out[24] sine_out[25] 0
*RES
1 *566:X *24:10 47.6838 
2 *24:10 sine_out[25] 26.2289 
*END

*D_NET *25 0.00362476
*CONN
*P sine_out[26] O
*I *567:X O *D sg13g2_buf_2
*CAP
1 sine_out[26] 0.000563237
2 *567:X 0.00073395
3 *25:12 0.00129719
4 sine_out[26] sine_out[27] 0
5 sine_out[26] *26:14 0
6 *25:12 *557:A 0
7 *25:12 *198:12 0.000337482
8 *25:12 *199:20 1.54282e-05
9 sine_out[21] *25:12 0
10 sine_out[23] *25:12 4.77699e-05
11 sine_out[25] sine_out[26] 0
12 *21:10 *25:12 0
13 *22:10 *25:12 0.000394151
14 *24:10 *25:12 0.000235556
*RES
1 *567:X *25:12 48.3121 
2 *25:12 sine_out[26] 21.2708 
*END

*D_NET *26 0.00466957
*CONN
*P sine_out[27] O
*I *568:X O *D sg13g2_buf_2
*CAP
1 sine_out[27] 7.08049e-05
2 *568:X 0.00041567
3 *26:14 0.00129431
4 *26:10 0.00163917
5 *26:10 *368:A 0
6 *26:10 *570:A 0.000466758
7 *26:10 *236:12 0
8 *26:10 *236:14 0
9 *26:10 *237:31 8.02269e-05
10 *26:14 sine_out[28] 0
11 *26:14 sine_out[29] 0
12 *26:14 *368:B 0.000144542
13 *26:14 *380:A2 4.77425e-05
14 *26:14 *382:B1 0.000144102
15 *26:14 *566:A 0
16 *26:14 *572:A 0
17 *26:14 *181:29 7.98582e-05
18 sine_out[26] sine_out[27] 0
19 sine_out[26] *26:14 0
20 *3:21 *26:10 0.000286382
*RES
1 *568:X *26:10 44.4702 
2 *26:10 *26:14 31.7832 
3 *26:14 sine_out[27] 40.7699 
*END

*D_NET *27 0.00437111
*CONN
*P sine_out[28] O
*I *569:X O *D sg13g2_buf_2
*CAP
1 sine_out[28] 0.000790192
2 *569:X 0.000976955
3 *27:10 0.00176715
4 sine_out[28] sine_out[29] 0
5 *27:10 sine_out[29] 0.000532142
6 *27:10 sine_out[31] 0
7 *27:10 *395:A 0
8 *27:10 *566:A 0
9 *27:10 *73:6 0
10 *27:10 *181:37 0
11 *27:10 *224:10 0.000144358
12 *27:10 *225:110 0.000112456
13 *27:10 *236:8 4.78578e-05
14 *24:10 *27:10 0
15 *26:14 sine_out[28] 0
*RES
1 *569:X *27:10 49.5378 
2 *27:10 sine_out[28] 27.4673 
*END

*D_NET *28 0.00474408
*CONN
*P sine_out[29] O
*I *570:X O *D sg13g2_buf_2
*CAP
1 sine_out[29] 0.00172744
2 *570:X 0.00172744
3 sine_out[29] sine_out[30] 0
4 sine_out[29] *382:A2 0
5 sine_out[29] *455:A 0
6 sine_out[29] *566:A 0.000144886
7 sine_out[29] *569:A 0.000242071
8 sine_out[29] *570:A 0
9 sine_out[29] *73:6 0
10 sine_out[29] *76:50 4.77699e-05
11 sine_out[29] *225:110 0.000112456
12 sine_out[28] sine_out[29] 0
13 *24:10 sine_out[29] 0.000209871
14 *26:14 sine_out[29] 0
15 *27:10 sine_out[29] 0.000532142
*RES
1 *570:X sine_out[29] 38.4035 
*END

*D_NET *29 0.00616602
*CONN
*P sine_out[2] O
*I *571:X O *D sg13g2_buf_2
*CAP
1 sine_out[2] 0.00157356
2 *571:X 0.000372441
3 *29:10 0.001946
4 sine_out[2] sine_out[3] 0.000886113
5 sine_out[2] *502:B 0
6 sine_out[2] *576:A 8.00842e-05
7 sine_out[2] *34:10 0.000533194
8 sine_out[2] *36:16 0.000372155
9 sine_out[2] *209:24 4.77425e-05
10 *29:10 *502:B 0
11 *29:10 *559:A 8.01392e-05
12 *29:10 *576:A 0
13 *29:10 *98:35 0
14 *29:10 *168:32 0
15 *29:10 *169:16 0.000274582
16 *29:10 *223:44 0
17 sine_out[1] sine_out[2] 0
*RES
1 *571:X *29:10 43.4196 
2 *29:10 sine_out[2] 37.8679 
*END

*D_NET *30 0.00525482
*CONN
*P sine_out[30] O
*I *572:X O *D sg13g2_buf_2
*CAP
1 sine_out[30] 0.000649418
2 *572:X 0.000508654
3 *30:16 0.00148916
4 *30:8 0.00134839
5 sine_out[30] sine_out[31] 0
6 *30:8 *32:10 0
7 *30:8 *73:18 0
8 *30:8 *224:54 0
9 *30:8 *224:74 0.000336368
10 *30:8 *230:68 0
11 *30:16 sine_out[31] 0.000922837
12 *30:16 sine_out[32] 0
13 *30:16 *73:6 0
14 sine_out[29] sine_out[30] 0
15 *24:10 sine_out[30] 0
*RES
1 *572:X *30:8 45.2942 
2 *30:8 *30:16 49.2288 
3 *30:16 sine_out[30] 21.8603 
*END

*D_NET *31 0.00596948
*CONN
*P sine_out[31] O
*I *573:X O *D sg13g2_buf_2
*CAP
1 sine_out[31] 0.00113652
2 *573:X 0.000687467
3 *31:8 0.00182399
4 sine_out[31] sine_out[32] 0
5 sine_out[31] *395:A 0.000533796
6 *31:8 *32:10 0
7 *31:8 *199:20 0
8 *31:8 *236:12 0
9 *31:8 *236:14 0
10 *31:8 *237:39 0.000864868
11 sine_out[30] sine_out[31] 0
12 *24:10 sine_out[31] 0
13 *27:10 sine_out[31] 0
14 *30:16 sine_out[31] 0.000922837
*RES
1 *573:X *31:8 47.0246 
2 *31:8 sine_out[31] 33.1505 
*END

*D_NET *32 0.00450859
*CONN
*P sine_out[32] O
*I *574:X O *D sg13g2_buf_2
*CAP
1 sine_out[32] 0.00122691
2 *574:X 0.000882685
3 *32:10 0.00210959
4 *32:10 *206:8 0
5 *32:10 *224:74 0
6 *32:10 *229:39 0.000145071
7 *32:10 *230:68 0
8 *32:10 *236:37 0.000144331
9 *32:10 *237:39 0
10 sine_out[31] sine_out[32] 0
11 *30:8 *32:10 0
12 *30:16 sine_out[32] 0
13 *31:8 *32:10 0
*RES
1 *574:X *32:10 48.24 
2 *32:10 sine_out[32] 34.0157 
*END

*D_NET *33 0.00456848
*CONN
*P sine_out[3] O
*I *576:X O *D sg13g2_buf_2
*CAP
1 sine_out[3] 0.00144571
2 *576:X 0.00144571
3 sine_out[3] sine_out[4] 0
4 sine_out[3] *580:A 0
5 sine_out[3] *37:10 0.000242213
6 sine_out[3] *158:14 0.000500994
7 sine_out[3] *209:24 4.77425e-05
8 sine_out[2] sine_out[3] 0.000886113
*RES
1 *576:X sine_out[3] 33.1195 
*END

*D_NET *34 0.0040504
*CONN
*P sine_out[4] O
*I *577:X O *D sg13g2_buf_2
*CAP
1 sine_out[4] 0.000893263
2 *577:X 0.000391073
3 *34:10 0.00128434
4 sine_out[4] sine_out[5] 0
5 sine_out[4] *580:A 8.00842e-05
6 sine_out[4] *37:10 0.000242071
7 *34:10 *354:B 0
8 *34:10 *502:B 0.000339123
9 *34:10 *239:10 0.000287256
10 sine_out[1] *34:10 0
11 sine_out[2] *34:10 0.000533194
12 sine_out[3] sine_out[4] 0
*RES
1 *577:X *34:10 44.9028 
2 *34:10 sine_out[4] 24.4559 
*END

*D_NET *35 0.00308036
*CONN
*P sine_out[5] O
*I *578:X O *D sg13g2_buf_2
*CAP
1 sine_out[5] 0.00146783
2 *578:X 0.00146783
3 sine_out[5] sine_out[6] 0
4 sine_out[5] sine_out[7] 0
5 sine_out[5] *354:B 0
6 sine_out[5] *354:A_N 0
7 sine_out[5] *487:A1 0
8 sine_out[5] *500:A2 0
9 sine_out[5] *532:A 0
10 sine_out[5] *580:A 0
11 sine_out[5] *582:A 0
12 sine_out[5] *38:10 0
13 sine_out[5] *233:24 0.0001447
14 sine_out[5] *233:46 0
15 sine_out[5] *235:115 0
16 sine_out[4] sine_out[5] 0
*RES
1 *578:X sine_out[5] 35.6843 
*END

*D_NET *36 0.00275062
*CONN
*P sine_out[6] O
*I *579:X O *D sg13g2_buf_2
*CAP
1 sine_out[6] 0.00058465
2 *579:X 0.000604583
3 *36:16 0.00118923
4 sine_out[6] sine_out[7] 0
5 *36:16 *37:10 0
6 sine_out[1] *36:16 0
7 sine_out[2] *36:16 0.000372155
8 sine_out[5] sine_out[6] 0
*RES
1 *579:X *36:16 47.4366 
2 *36:16 sine_out[6] 26.2289 
*END

*D_NET *37 0.00321369
*CONN
*P sine_out[7] O
*I *580:X O *D sg13g2_buf_2
*CAP
1 sine_out[7] 0.000740778
2 *580:X 0.000390025
3 *37:10 0.0011308
4 sine_out[7] sine_out[8] 0
5 sine_out[7] *38:10 0.000467799
6 *37:10 *211:44 0
7 sine_out[3] *37:10 0.000242213
8 sine_out[4] *37:10 0.000242071
9 sine_out[5] sine_out[7] 0
10 sine_out[6] sine_out[7] 0
11 *36:16 *37:10 0
*RES
1 *580:X *37:10 44.6865 
2 *37:10 sine_out[7] 28.1962 
*END

*D_NET *38 0.0023716
*CONN
*P sine_out[8] O
*I *581:X O *D sg13g2_buf_2
*CAP
1 sine_out[8] 0.000424569
2 *581:X 0.00052733
3 *38:10 0.000951899
4 sine_out[8] sine_out[9] 0
5 *38:10 sine_out[9] 0
6 *38:10 *213:20 0
7 sine_out[5] *38:10 0
8 sine_out[7] sine_out[8] 0
9 sine_out[7] *38:10 0.000467799
*RES
1 *581:X *38:10 45.7371 
2 *38:10 sine_out[8] 24.956 
*END

*D_NET *39 0.00195748
*CONN
*P sine_out[9] O
*I *582:X O *D sg13g2_buf_2
*CAP
1 sine_out[9] 0.000978739
2 *582:X 0.000978739
3 sine_out[10] sine_out[9] 0
4 sine_out[11] sine_out[9] 0
5 sine_out[8] sine_out[9] 0
6 *8:6 sine_out[9] 0
7 *9:10 sine_out[9] 0
8 *38:10 sine_out[9] 0
*RES
1 *582:X sine_out[9] 30.2047 
*END

*D_NET *40 0.000557574
*CONN
*I *519:D I *D sg13g2_dfrbpq_1
*I *437:Y O *D sg13g2_inv_1
*CAP
1 *519:D 0
2 *437:Y 0.000278787
3 *40:8 0.000278787
4 *40:8 *41:12 0
*RES
1 *437:Y *40:8 43.0694 
2 *40:8 *519:D 40 
*END

*D_NET *41 0.00206766
*CONN
*I *518:D I *D sg13g2_dfrbpq_1
*I *432:Y O *D sg13g2_xnor2_1
*CAP
1 *518:D 9.75796e-05
2 *432:Y 0.000805147
3 *41:12 0.000902727
4 *518:D *518:RESET_B 0
5 *518:D *215:27 8.00842e-05
6 *41:12 *432:A 0
7 *41:12 *432:B 0
8 *41:12 *509:A 0
9 *41:12 *518:CLK 0
10 *41:12 *551:A 0.000182121
11 *41:12 *101:10 0
12 *40:8 *41:12 0
*RES
1 *432:Y *41:12 47.9722 
2 *41:12 *518:D 40.9682 
*END

*D_NET *42 0.000627904
*CONN
*I *526:A I *D sg13g2_buf_8
*I *527:A I *D sg13g2_buf_2
*I *519:Q O *D sg13g2_dfrbpq_1
*CAP
1 *526:A 0.000194516
2 *527:A 0
3 *519:Q 0.000111708
4 *42:8 0.000306224
5 *526:A *222:8 1.54556e-05
6 *42:8 *222:8 0
*RES
1 *519:Q *42:8 21.4111 
2 *42:8 *527:A 20 
3 *42:8 *526:A 22.7604 
*END

*D_NET *43 0.0021976
*CONN
*I *552:A I *D sg13g2_dlygate4sd3_1
*I *550:A I *D sg13g2_buf_2
*I *511:Q O *D sg13g2_dfrbpq_1
*CAP
1 *552:A 6.39373e-05
2 *550:A 0.000161804
3 *511:Q 0.000130519
4 *43:8 0.000356261
5 *550:A *242:118 0
6 *550:A *245:10 7.51285e-05
7 *550:A *245:12 0.000393736
8 *550:A *245:16 0.000234726
9 *550:A *246:22 0.000393822
10 *552:A *238:25 0
11 *552:A *245:10 5.30319e-05
12 *43:8 *546:A 4.77425e-05
13 *43:8 *242:14 0.00011101
14 *43:8 *245:10 0.000175886
*RES
1 *511:Q *43:8 41.4008 
2 *43:8 *550:A 43.0694 
3 *43:8 *552:A 40.8446 
*END

*D_NET *44 0.000251251
*CONN
*I *548:A I *D sg13g2_buf_8
*I *512:Q O *D sg13g2_dfrbpq_1
*CAP
1 *548:A 0.000101669
2 *512:Q 0.000101669
3 *548:A *162:10 4.79124e-05
4 *548:A *183:49 0
*RES
1 *512:Q *548:A 41.1639 
*END

*D_NET *45 0.000171807
*CONN
*I *512:D I *D sg13g2_dfrbpq_1
*I *410:Y O *D sg13g2_xnor2_1
*CAP
1 *512:D 7.8316e-05
2 *410:Y 7.8316e-05
3 *512:D *411:A2 1.51748e-05
4 *512:D *242:28 0
*RES
1 *410:Y *512:D 40.9167 
*END

*D_NET *46 0.000335865
*CONN
*I *545:A I *D sg13g2_buf_8
*I *513:Q O *D sg13g2_dfrbpq_1
*CAP
1 *545:A 0.000160232
2 *513:Q 0.000160232
3 *545:A *514:D 0
4 *545:A *182:10 1.54008e-05
5 *545:A *222:8 0
*RES
1 *513:Q *545:A 41.4008 
*END

*D_NET *47 0.0010398
*CONN
*I *513:D I *D sg13g2_dfrbpq_1
*I *414:X O *D sg13g2_xor2_1
*CAP
1 *513:D 9.79438e-05
2 *414:X 0.000246602
3 *47:8 0.000344545
4 *513:D *183:8 0.000177272
5 *513:D *215:27 0.000173439
6 *47:8 *518:CLK 0
7 *47:8 *215:35 0
8 *47:8 *221:10 0
*RES
1 *414:X *47:8 42.3278 
2 *47:8 *513:D 41.1845 
*END

*D_NET *48 0.00144081
*CONN
*I *543:A I *D sg13g2_buf_1
*I *542:A I *D sg13g2_buf_8
*I *514:Q O *D sg13g2_dfrbpq_1
*CAP
1 *543:A 0.000127384
2 *542:A 0.000329614
3 *514:Q 0.000183753
4 *48:10 0.000640751
5 *542:A *94:10 0
6 *542:A *162:14 0
7 *48:10 *61:12 0
8 *48:10 *185:20 8.00842e-05
9 *48:10 *215:8 0
10 *48:10 *240:10 7.92265e-05
*RES
1 *514:Q *48:10 41.751 
2 *48:10 *542:A 43.0694 
3 *48:10 *543:A 41.1639 
*END

*D_NET *49 0.0014262
*CONN
*I *514:D I *D sg13g2_dfrbpq_1
*I *418:X O *D sg13g2_xor2_1
*CAP
1 *514:D 0.000149474
2 *418:X 0.000311613
3 *49:8 0.000461087
4 *514:D *222:8 0
5 *49:8 *513:CLK 0
6 *49:8 *162:14 0.000504027
7 *49:8 *182:10 0
8 *49:8 *215:12 0
9 *545:A *514:D 0
*RES
1 *418:X *49:8 43.5638 
2 *49:8 *514:D 41.1845 
*END

*D_NET *50 0.000167894
*CONN
*I *541:A I *D sg13g2_buf_2
*I *515:Q O *D sg13g2_dfrbpq_1
*CAP
1 *541:A 8.39471e-05
2 *515:Q 8.39471e-05
3 *541:A *392:B 0
4 *541:A *534:A 0
*RES
1 *515:Q *541:A 40.9167 
*END

*D_NET *51 0.000794027
*CONN
*I *515:D I *D sg13g2_dfrbpq_1
*I *422:X O *D sg13g2_xor2_1
*CAP
1 *515:D 7.56756e-05
2 *422:X 0.000186004
3 *51:10 0.00026168
4 *515:D *425:A1 0.000111217
5 *515:D *222:25 0
6 *51:10 *419:A 7.94189e-05
7 *51:10 *87:12 8.00313e-05
*RES
1 *422:X *51:10 41.8746 
2 *51:10 *515:D 40.7519 
*END

*D_NET *52 0.004851
*CONN
*I *536:A I *D sg13g2_buf_2
*I *516:Q O *D sg13g2_dfrbpq_1
*CAP
1 *536:A 0.00062472
2 *516:Q 0.000697815
3 *52:10 0.00132253
4 *536:A *375:A1 0
5 *536:A *455:B 0
6 *536:A *456:B 4.77425e-05
7 *536:A *71:10 0
8 *536:A *119:8 0.000978369
9 *536:A *225:22 1.54008e-05
10 *536:A *229:39 0
11 *536:A *230:34 7.92265e-05
12 *536:A *232:16 0
13 *52:10 *392:B 0
14 *52:10 *455:B 0
15 *52:10 *531:A 0
16 *52:10 *232:16 0.0010852
*RES
1 *516:Q *52:10 47.5911 
2 *52:10 *536:A 47.1247 
*END

*D_NET *53 0.000825128
*CONN
*I *516:D I *D sg13g2_dfrbpq_1
*I *426:X O *D sg13g2_xor2_1
*CAP
1 *516:D 0.00026013
2 *426:X 0.00026013
3 *516:D *427:A2 0
4 *516:D *517:D 0.000304868
5 *516:D *94:14 0
*RES
1 *426:X *516:D 42.8325 
*END

*D_NET *54 0.000620318
*CONN
*I *531:A I *D sg13g2_buf_8
*I *517:Q O *D sg13g2_dfrbpq_1
*CAP
1 *531:A 0.000188981
2 *517:Q 0.000188981
3 *531:A *392:B 0.000242355
4 *52:10 *531:A 0
*RES
1 *517:Q *531:A 41.9673 
*END

*D_NET *55 0.00117742
*CONN
*I *517:D I *D sg13g2_dfrbpq_1
*I *429:Y O *D sg13g2_xnor2_1
*CAP
1 *517:D 0.000436275
2 *429:Y 0.000436275
3 *517:D *424:B 0
4 *517:D *427:A2 0
5 *517:D *429:A 0
6 *517:D *429:B 0
7 *516:D *517:D 0.000304868
*RES
1 *429:Y *517:D 44.2642 
*END

*D_NET *56 0.00956739
*CONN
*I *411:A1 I *D sg13g2_o21ai_1
*I *356:A I *D sg13g2_nor2_1
*I *381:A1 I *D sg13g2_o21ai_1
*I *511:D I *D sg13g2_dfrbpq_1
*I *352:A I *D sg13g2_nor2_1
*I *346:Y O *D sg13g2_inv_2
*CAP
1 *411:A1 3.05217e-05
2 *356:A 0.000465466
3 *381:A1 8.8269e-05
4 *511:D 0.000120574
5 *352:A 7.88687e-05
6 *346:Y 3.06815e-05
7 *56:44 0.00189427
8 *56:20 0.000199443
9 *56:18 0.00199466
10 *56:6 0.000715321
11 *352:A *470:A 7.43655e-05
12 *352:A *481:B2 4.77425e-05
13 *352:A *132:8 0.000125705
14 *352:A *153:14 0.000179386
15 *356:A *164:28 0.000122871
16 *356:A *177:8 0
17 *356:A *210:8 0.000958898
18 *356:A *211:36 7.58489e-05
19 *356:A *233:89 0.00052311
20 *356:A *233:104 0
21 *381:A1 *159:65 8.00842e-05
22 *381:A1 *163:24 1.51748e-05
23 *381:A1 *210:8 0.000179148
24 *381:A1 *233:89 0.00018152
25 *411:A1 *411:A2 0
26 *411:A1 *414:A 0
27 *511:D *153:14 0.000284702
28 *511:D *186:8 0
29 *56:18 *346:A 1.49483e-05
30 *56:18 *411:A2 4.65176e-05
31 *56:18 *186:8 0
32 *56:18 *242:28 0
33 *56:44 *66:59 0
34 *56:44 *79:16 0.000505239
35 *56:44 *117:12 0
36 *56:44 *125:45 7.8418e-05
37 *56:44 *133:18 0
38 *56:44 *133:33 0