*SPEF "ieee 1481-1999"
*DESIGN "DigitalSine"
*DATE "21:23:59 Friday March 06, 2026"
*VENDOR "The OpenROAD Project"
*PROGRAM "OpenROAD"
*VERSION "341650e72dad0dc8571822ff8c5d9c5e365327f7"
*DESIGN_FLOW "NAME_SCOPE LOCAL" "PIN_CAP NONE"
*DIVIDER /
*DELIMITER :
*BUS_DELIMITER []
*T_UNIT 1 NS
*C_UNIT 1 PF
*R_UNIT 1 OHM
*L_UNIT 1 HENRY

*NAME_MAP
*3 clk
*4 rst
*5 sign
*6 signB
*7 sine_out[0]
*8 sine_out[10]
*9 sine_out[11]
*10 sine_out[12]
*11 sine_out[13]
*12 sine_out[14]
*13 sine_out[15]
*14 sine_out[16]
*15 sine_out[17]
*16 sine_out[1]
*17 sine_out[2]
*18 sine_out[3]
*19 sine_out[4]
*20 sine_out[5]
*21 sine_out[6]
*22 sine_out[7]
*23 sine_out[8]
*24 sine_out[9]
*25 CTRL\.P0
*26 CTRL\.P1
*27 CTRL\.S0
*28 DPATH\.SUM\.Cout0
*29 DPATH\.SUM\.fa_1\.A
*30 DPATH\.SUM\.fa_1\.S
*31 DPATH\.SUM\.fa_2\.A
*32 DPATH\.SUM\.fa_2\.S
*33 DPATH\.SUM\.fa_3\.A
*34 DPATH\.SUM\.fa_3\.S
*35 DPATH\.SUM\.fa_4\.A
*36 DPATH\.SUM\.fa_4\.S
*37 DPATH\.SUM\.fa_5\.A
*38 DPATH\.SUM\.fa_5\.S
*39 DPATH\.SUM\.fa_6\.A
*40 DPATH\.SUM\.fa_6\.S
*41 DPATH\.SUM\.ha_0\.S
*42 _000_
*43 _001_
*44 _002_
*45 _003_
*46 _004_
*47 _005_
*48 _006_
*49 _007_
*50 _008_
*51 _009_
*52 _010_
*53 _011_
*54 _012_
*55 _013_
*56 _014_
*57 _015_
*58 _016_
*59 _017_
*60 _018_
*61 _019_
*62 _020_
*63 _021_
*64 _022_
*65 _023_
*66 _024_
*67 _025_
*68 _026_
*69 _027_
*70 _028_
*71 _029_
*72 _030_
*73 _031_
*74 _032_
*75 _033_
*76 _034_
*77 _035_
*78 _036_
*79 _037_
*80 _038_
*81 _039_
*82 _040_
*83 _041_
*84 _042_
*85 _043_
*86 _044_
*87 _045_
*88 _046_
*89 _047_
*90 _048_
*91 _049_
*92 _050_
*93 _051_
*94 _052_
*95 _053_
*96 _054_
*97 _055_
*98 _056_
*99 _057_
*100 _058_
*101 _059_
*102 _060_
*103 _061_
*104 _062_
*105 _063_
*106 _064_
*107 _065_
*108 _066_
*109 _067_
*110 _068_
*111 _069_
*112 _070_
*113 _071_
*114 _072_
*115 _073_
*116 _074_
*117 _075_
*118 _076_
*119 _077_
*120 _078_
*121 _079_
*122 _080_
*123 _081_
*124 _082_
*125 _083_
*126 _084_
*127 _085_
*128 _086_
*129 _087_
*130 _088_
*131 _089_
*132 _090_
*133 _091_
*134 _092_
*135 _093_
*136 _094_
*137 _095_
*138 _096_
*139 _097_
*140 _098_
*141 _099_
*142 _100_
*143 _101_
*144 _102_
*145 _103_
*146 _104_
*147 _105_
*148 _106_
*149 _107_
*150 _108_
*151 _109_
*152 _110_
*153 _111_
*154 _112_
*155 _113_
*156 _114_
*157 _115_
*158 _116_
*159 _117_
*160 _118_
*161 _119_
*162 _120_
*163 _121_
*164 _122_
*165 _123_
*166 _124_
*167 _125_
*168 _126_
*169 _127_
*170 clknet_0_clk
*171 clknet_1_0__leaf_clk
*172 clknet_1_1__leaf_clk
*173 net1
*174 net10
*175 net11
*176 net12
*177 net13
*178 net14
*179 net15
*180 net16
*181 net17
*182 net18
*183 net19
*184 net2
*185 net20
*186 net21
*187 net22
*188 net23
*189 net3
*190 net4
*191 net5
*192 net51
*193 net52
*194 net53
*195 net54
*196 net55
*197 net56
*198 net57
*199 net58
*200 net59
*201 net6
*202 net60
*203 net61
*204 net62
*205 net63
*206 net64
*207 net65
*208 net66
*209 net67
*210 net68
*211 net69
*212 net7
*213 net70
*214 net71
*215 net72
*216 net8
*217 net9
*218 FILLER_0_0
*219 FILLER_0_117
*220 FILLER_0_7
*221 FILLER_0_88
*222 FILLER_0_9
*223 FILLER_10_0
*224 FILLER_10_118
*225 FILLER_10_14
*226 FILLER_10_21
*227 FILLER_10_58
*228 FILLER_10_64
*229 FILLER_10_7
*230 FILLER_10_70
*231 FILLER_10_80
*232 FILLER_11_0
*233 FILLER_11_14
*234 FILLER_11_21
*235 FILLER_11_28
*236 FILLER_11_60
*237 FILLER_11_67
*238 FILLER_11_7
*239 FILLER_11_85
*240 FILLER_11_97
*241 FILLER_12_0
*242 FILLER_12_36
*243 FILLER_12_4
*244 FILLER_12_64
*245 FILLER_12_77
*246 FILLER_12_79
*247 FILLER_12_90
*248 FILLER_13_0
*249 FILLER_13_14
*250 FILLER_13_21
*251 FILLER_13_28
*252 FILLER_13_47
*253 FILLER_13_7
*254 FILLER_13_78
*255 FILLER_13_80
*256 FILLER_14_0
*257 FILLER_14_109
*258 FILLER_14_14
*259 FILLER_14_21
*260 FILLER_14_28
*261 FILLER_14_35
*262 FILLER_14_42
*263 FILLER_14_52
*264 FILLER_14_66
*265 FILLER_14_7
*266 FILLER_14_73
*267 FILLER_14_83
*268 FILLER_1_0
*269 FILLER_1_14
*270 FILLER_1_18
*271 FILLER_1_7
*272 FILLER_1_81
*273 FILLER_2_0
*274 FILLER_2_14
*275 FILLER_2_18
*276 FILLER_2_7
*277 FILLER_3_0
*278 FILLER_3_14
*279 FILLER_3_16
*280 FILLER_3_42
*281 FILLER_3_61
*282 FILLER_3_7
*283 FILLER_4_0
*284 FILLER_4_103
*285 FILLER_4_11
*286 FILLER_4_25
*287 FILLER_4_35
*288 FILLER_4_7
*289 FILLER_5_0
*290 FILLER_5_2
*291 FILLER_5_46
*292 FILLER_5_53
*293 FILLER_5_78
*294 FILLER_5_90
*295 FILLER_5_99
*296 FILLER_6_0
*297 FILLER_6_116
*298 FILLER_6_118
*299 FILLER_6_30
*300 FILLER_6_52
*301 FILLER_6_7
*302 FILLER_6_72
*303 FILLER_7_0
*304 FILLER_7_103
*305 FILLER_7_105
*306 FILLER_7_43
*307 FILLER_7_82
*308 FILLER_8_116
*309 FILLER_8_118
*310 FILLER_8_40
*311 FILLER_8_42
*312 FILLER_8_49
*313 FILLER_8_55
*314 FILLER_8_61
*315 FILLER_8_67
*316 FILLER_8_89
*317 FILLER_9_0
*318 FILLER_9_114
*319 FILLER_9_59
*320 FILLER_9_82
*321 FILLER_9_84
*322 _128_
*323 _129_
*324 _130_
*325 _131_
*326 _132_
*327 _133_
*328 _134_
*329 _135_
*330 _136_
*331 _137_
*332 _138_
*333 _139_
*334 _140_
*335 _141_
*336 _142_
*337 _143_
*338 _144_
*339 _145_
*340 _146_
*341 _147_
*342 _148_
*343 _149_
*344 _150_
*345 _151_
*346 _152_
*347 _153_
*348 _154_
*349 _155_
*350 _156_
*351 _157_
*352 _158_
*353 _159_
*354 _160_
*355 _161_
*356 _162_
*357 _163_
*358 _164_
*359 _165_
*360 _166_
*361 _167_
*362 _168_
*363 _169_
*364 _170_
*365 _171_
*366 _172_
*367 _173_
*368 _174_
*369 _175_
*370 _176_
*371 _177_
*372 _178_
*373 _179_
*374 _180_
*375 _181_
*376 _182_
*377 _183_
*378 _184_
*379 _185_
*380 _186_
*381 _187_
*382 _188_
*383 _189_
*384 _190_
*385 _191_
*386 _192_
*387 _193_
*388 _194_
*389 _195_
*390 _196_
*391 _197_
*392 _198_
*393 _199_
*394 _200_
*395 _201_
*396 _202_
*397 _203_
*398 _204_
*399 _205_
*400 _206_
*401 _207_
*402 _208_
*403 _209_
*404 _210_
*405 _211_
*406 _212_
*407 _213_
*408 _214_
*409 _215_
*410 _216_
*411 _217_
*412 _218_
*413 _219_
*414 _220_
*415 _221_
*416 _222_
*417 _223_
*418 _224_
*419 _225_
*420 _226_
*421 _227_
*422 _228_
*423 _229_
*424 _230_
*425 _231_
*426 _232_
*427 _233_
*428 _234_
*429 _235_
*430 _236_
*431 _237_
*432 _238_
*433 _239_
*434 _240_
*435 _241_
*436 _242_
*437 _243_
*438 _244_
*439 _245_
*440 _246_
*441 _247_
*442 _248_
*443 _249_
*444 _250_
*445 _251_
*446 _252_
*447 _253_
*448 _254_
*449 _255_
*450 _256_
*451 _257_
*452 _258_
*453 _259_
*454 _260_
*455 _261_
*456 _262_
*457 _263_
*458 _264_
*459 _265_
*460 _266_
*461 _267_
*462 _268_
*463 _269_
*464 _270_
*465 _271_
*466 _272_
*467 _273_
*468 _274_
*469 _275_
*470 _276_
*471 _277_
*472 _278_
*473 _279_
*474 _280_
*475 _281_
*476 _282_
*477 _283_
*478 _284_
*479 _285_
*480 _286_
*481 _287_
*482 _288_
*483 _289_
*484 _290_
*485 _291_
*486 _292_
*487 clkbuf_0_clk
*488 clkbuf_1_0__f_clk
*489 clkbuf_1_1__f_clk
*490 clkload0
*491 fanout22
*492 fanout51
*493 fanout52
*494 fanout53
*495 fanout54
*496 fanout55
*497 fanout56
*498 fanout57
*499 fanout58
*500 fanout59
*501 fanout60
*502 fanout61
*503 fanout62
*504 fanout63
*505 fanout64
*506 fanout65
*507 fanout66
*508 fanout67
*509 fanout68
*510 fanout69
*511 fanout70
*512 fanout71
*513 fanout72
*514 hold1
*515 input1
*516 output10
*517 output11
*518 output12
*519 output13
*520 output14
*521 output15
*522 output16
*523 output17
*524 output18
*525 output19
*526 output2
*527 output20
*528 output21
*529 output3
*530 output4
*531 output5
*532 output6
*533 output7
*534 output8
*535 output9

*PORTS
clk I
rst I
sign O
signB O
sine_out[0] O
sine_out[10] O
sine_out[11] O
sine_out[12] O
sine_out[13] O
sine_out[14] O
sine_out[15] O
sine_out[16] O
sine_out[17] O
sine_out[1] O
sine_out[2] O
sine_out[3] O
sine_out[4] O
sine_out[5] O
sine_out[6] O
sine_out[7] O
sine_out[8] O
sine_out[9] O

*D_NET *3 0.00677742
*CONN
*P clk I
*I *487:A I *D sg13g2_buf_8
*CAP
1 clk 0.000560199
2 *487:A 0.00226701
3 *3:11 0.00282721
4 *487:A *324:A 0
5 *487:A *343:B 0
6 *487:A *343:A 4.77425e-05
7 *487:A *346:B 0
8 *487:A *390:C 0
9 *487:A *425:B1 0
10 *487:A *64:12 0.000337402
11 *487:A *65:12 0
12 *487:A *119:12 0.000144027
13 *487:A *143:14 0
14 *487:A *144:10 0.000177042
15 *487:A *164:30 0
16 *487:A *195:6 0
17 *487:A *195:68 0
18 *487:A *195:75 0
19 *487:A *197:62 0.000304824
20 *487:A *197:75 0.000111963
*RES
1 clk *3:11 46.5405 
2 *3:11 *487:A 42.351 
*END

*D_NET *4 0.00182022
*CONN
*P rst I
*I *515:A I *D sg13g2_buf_1
*CAP
1 rst 0.000910111
2 *515:A 0.000910111
3 *515:A *15:8 0
4 *515:A *174:34 0
5 *515:A *187:49 0
*RES
1 rst *515:A 31.1858 
*END

*D_NET *5 0.00246557
*CONN
*P sign O
*I *526:X O *D sg13g2_buf_2
*CAP
1 sign 0.000260242
2 *526:X 0.000843654
3 *5:10 0.0011039
4 sign signB 0
5 sign sine_out[0] 0
6 *5:10 sine_out[2] 0
7 *5:10 sine_out[3] 4.79124e-05
8 *5:10 *514:A 0.000209871
9 *5:10 *526:A 0
10 *5:10 *6:6 0
*RES
1 *526:X *5:10 49.5687 
2 *5:10 sign 3.0179 
*END

*D_NET *6 0.00281502
*CONN
*P signB O
*I *529:X O *D sg13g2_buf_2
*CAP
1 signB 0.00038563
2 *529:X 0.00102188
3 *6:6 0.00140751
4 *6:6 sine_out[2] 0
5 *6:6 *514:A 0
6 *6:6 *529:A 0
7 *6:6 *189:21 0
8 sign signB 0
9 *5:10 *6:6 0
*RES
1 *529:X *6:6 31.1343 
2 *6:6 signB 24.7483 
*END

*D_NET *7 0.0019184
*CONN
*P sine_out[0] O
*I *530:X O *D sg13g2_buf_1
*CAP
1 sine_out[0] 0.00075688
2 *530:X 0.000202322
3 *7:8 0.000959202
4 sine_out[0] sine_out[1] 0
5 sign sine_out[0] 0
*RES
1 *530:X *7:8 42.266 
2 *7:8 sine_out[0] 9.4451 
*END

*D_NET *8 0.00622241
*CONN
*P sine_out[10] O
*I *531:X O *D sg13g2_buf_1
*CAP
1 sine_out[10] 0.000189422
2 *531:X 0.000267763
3 *8:12 0.00131801
4 *8:8 0.00139635
5 sine_out[10] sine_out[11] 0
6 sine_out[10] sine_out[9] 0
7 *8:8 sine_out[4] 0.00012816
8 *8:8 *23:8 0.000234726
9 *8:8 *178:10 0.000129078
10 *8:8 *185:18 0
11 *8:12 sine_out[7] 0
12 *8:12 *21:8 0.00131106
13 *8:12 *23:14 0.00124784
14 *8:12 *179:16 0
15 *8:12 *191:12 0
*RES
1 *531:X *8:8 43.3166 
2 *8:8 *8:12 32.8647 
3 *8:12 sine_out[10] 22.0291 
*END

*D_NET *9 0.00955638
*CONN
*P sine_out[11] O
*I *532:X O *D sg13g2_buf_1
*CAP
1 sine_out[11] 0.000641636
2 *532:X 0
3 *9:14 0.00235455
4 *9:6 0.00171291
5 sine_out[11] sine_out[12] 0
6 sine_out[11] *191:12 0
7 *9:14 sine_out[13] 0
8 *9:14 sine_out[14] 0
9 *9:14 *39:10 0
10 *9:14 *131:8 0.000547525
11 *9:14 *175:12 0.00369164
12 *9:14 *193:54 0
13 *9:14 *199:12 0
14 *9:14 *203:8 0.000372556
15 *9:14 *203:18 0.000235556
16 *9:14 *212:10 0
17 sine_out[10] sine_out[11] 0
*RES
1 *532:X *9:6 40 
2 *9:6 *9:14 44.2565 
3 *9:14 sine_out[11] 26.9525 
*END

*D_NET *10 0.00351021
*CONN
*P sine_out[12] O
*I *533:X O *D sg13g2_buf_1
*CAP
1 sine_out[12] 0.000916648
2 *533:X 0.000405389
3 *10:8 0.00132204
4 sine_out[12] sine_out[13] 0
5 sine_out[12] *37:14 0.000232389
6 sine_out[12] *171:45 0.000553661
7 sine_out[12] *171:53 0
8 sine_out[12] *191:8 0
9 sine_out[12] *195:10 0
10 sine_out[12] *195:25 0
11 sine_out[12] *195:61 0
12 sine_out[12] *197:8 0
13 *10:8 *330:A 8.00842e-05
14 *10:8 *330:B 0
15 *10:8 *533:A 0
16 *10:8 *39:10 0
17 *10:8 *174:28 0
18 *10:8 *216:10 0
19 sine_out[11] sine_out[12] 0
*RES
1 *533:X *10:8 43.5638 
2 *10:8 sine_out[12] 10.9283 
*END

*D_NET *11 0.00737472
*CONN
*P sine_out[13] O
*I *534:X O *D sg13g2_buf_1
*CAP
1 sine_out[13] 0.00260023
2 *534:X 0
3 *11:6 0.00260023
4 sine_out[13] sine_out[14] 0
5 sine_out[13] *483:RESET_B 0
6 sine_out[13] *37:14 0
7 sine_out[13] *131:8 0
8 sine_out[13] *141:23 0
9 sine_out[13] *142:8 0
10 sine_out[13] *171:53 0
11 sine_out[13] *175:12 0
12 sine_out[13] *191:8 0
13 sine_out[13] *193:39 0.000861168
14 sine_out[13] *193:54 0.000607939
15 sine_out[13] *196:14 0
16 sine_out[13] *201:12 0.00070515
17 sine_out[13] *203:8 0
18 sine_out[13] *203:18 0
19 sine_out[13] *212:10 0
20 sine_out[13] *216:16 0
21 sine_out[12] sine_out[13] 0
22 *9:14 sine_out[13] 0
*RES
1 *534:X *11:6 40 
2 *11:6 sine_out[13] 27.4186 
*END

*D_NET *12 0.00648713
*CONN
*P sine_out[14] O
*I *535:X O *D sg13g2_buf_1
*CAP
1 sine_out[14] 0.00196869
2 *535:X 2.41961e-05
3 *12:8 0.00199289
4 sine_out[14] sine_out[15] 0
5 sine_out[14] *40:8 0.00173165
6 sine_out[14] *143:14 0.000769697
7 sine_out[14] *174:34 0
8 sine_out[14] *175:12 0
9 sine_out[13] sine_out[14] 0
10 *9:14 sine_out[14] 0
*RES
1 *535:X *12:8 40.3193 
2 *12:8 sine_out[14] 20.3219 
*END

*D_NET *13 0.0090699
*CONN
*P sine_out[15] O
*I *516:X O *D sg13g2_buf_1
*CAP
1 sine_out[15] 0.00219699
2 *516:X 0.000139578
3 *13:8 0.00233656
4 sine_out[15] sine_out[16] 0
5 sine_out[15] *14:14 0
6 sine_out[15] *15:14 0.00439678
7 sine_out[15] *40:8 0
8 *13:8 *14:8 0
9 *13:8 *15:8 0
10 *13:8 *174:34 0
11 sine_out[14] sine_out[15] 0
*RES
1 *516:X *13:8 41.1845 
2 *13:8 sine_out[15] 26.5843 
*END

*D_NET *14 0.00700468
*CONN
*P sine_out[16] O
*I *517:X O *D sg13g2_buf_1
*CAP
1 sine_out[16] 0.000498591
2 *517:X 8.46163e-05
3 *14:14 0.00341772
4 *14:8 0.00300375
5 sine_out[16] sine_out[17] 0
6 *14:8 *15:8 0
7 *14:8 *174:34 0
8 *14:14 *15:14 0
9 *14:14 *40:8 0
10 *14:14 *46:8 0
11 *14:14 *174:34 0
12 sine_out[15] sine_out[16] 0
13 sine_out[15] *14:14 0
14 *13:8 *14:8 0
*RES
1 *517:X *14:8 40.7519 
2 *14:8 *14:14 44.1844 
3 *14:14 sine_out[16] 25.9843 
*END

*D_NET *15 0.00916309
*CONN
*P sine_out[17] O
*I *518:X O *D sg13g2_buf_1
*CAP
1 sine_out[17] 0.000402869
2 *518:X 0.000133413
3 *15:14 0.00224974
4 *15:8 0.00198029
5 *15:14 *46:8 0
6 sine_out[15] *15:14 0.00439678
7 sine_out[16] sine_out[17] 0
8 *515:A *15:8 0
9 *13:8 *15:8 0
10 *14:8 *15:8 0
11 *14:14 *15:14 0
*RES
1 *518:X *15:8 41.4008 
2 *15:8 *15:14 47.4289 
3 *15:14 sine_out[17] 25.2427 
*END

*D_NET *16 0.00142311
*CONN
*P sine_out[1] O
*I *519:X O *D sg13g2_buf_1
*CAP
1 sine_out[1] 0.000711557
2 *519:X 0.000711557
3 sine_out[1] sine_out[2] 0
4 sine_out[1] *26:8 0
5 sine_out[1] *189:21 0
6 sine_out[0] sine_out[1] 0
*RES
1 *519:X sine_out[1] 48.4563 
*END

*D_NET *17 0.00169315
*CONN
*P sine_out[2] O
*I *520:X O *D sg13g2_buf_1
*CAP
1 sine_out[2] 0.000725397
2 *520:X 0.000725397
3 sine_out[2] sine_out[3] 0
4 sine_out[2] *407:A2 0
5 sine_out[2] *526:A 0.000242355
6 sine_out[1] sine_out[2] 0
7 *5:10 sine_out[2] 0
8 *6:6 sine_out[2] 0
*RES
1 *520:X sine_out[2] 48.034 
*END

*D_NET *18 0.00201912
*CONN
*P sine_out[3] O
*I *521:X O *D sg13g2_buf_1
*CAP
1 sine_out[3] 0.000824486
2 *521:X 0.000824486
3 sine_out[3] sine_out[4] 0
4 sine_out[3] sine_out[5] 0.0001773
5 sine_out[3] *408:A1 0
6 sine_out[3] *19:14 0.000144938
7 sine_out[3] *67:28 0
8 sine_out[3] *185:18 0
9 sine_out[2] sine_out[3] 0
10 *5:10 sine_out[3] 4.79124e-05
*RES
1 *521:X sine_out[3] 49.0846 
*END

*D_NET *19 0.00413141
*CONN
*P sine_out[4] O
*I *522:X O *D sg13g2_buf_1
*CAP
1 sine_out[4] 0.000202873
2 *522:X 8.39232e-05
3 *19:14 0.000889391
4 *19:8 0.000770441
5 sine_out[4] sine_out[5] 0
6 *19:14 sine_out[5] 0.000761217
7 *19:14 sine_out[7] 0
8 *19:14 *23:14 0.00115047
9 sine_out[3] sine_out[4] 0
10 sine_out[3] *19:14 0.000144938
11 *8:8 sine_out[4] 0.00012816
*RES
1 *522:X *19:8 40.8446 
2 *19:8 *19:14 48.1061 
3 *19:14 sine_out[4] 2.5235 
*END

*D_NET *20 0.00280461
*CONN
*P sine_out[5] O
*I *523:X O *D sg13g2_buf_1
*CAP
1 sine_out[5] 0.000699073
2 *523:X 0.000178134
3 *20:8 0.000877207
4 sine_out[5] sine_out[6] 0
5 sine_out[5] sine_out[7] 0.000111685
6 sine_out[5] *67:28 0
7 *20:8 *67:28 0
8 *20:8 *183:8 0
9 sine_out[3] sine_out[5] 0.0001773
10 sine_out[4] sine_out[5] 0
11 *19:14 sine_out[5] 0.000761217
*RES
1 *523:X *20:8 41.5862 
2 *20:8 sine_out[5] 47.8486 
*END

*D_NET *21 0.00644614
*CONN
*P sine_out[6] O
*I *524:X O *D sg13g2_buf_1
*CAP
1 sine_out[6] 0.000162998
2 *524:X 0.00131216
3 *21:8 0.00147516
4 sine_out[6] sine_out[7] 0
5 *21:8 *179:16 0
6 *21:8 *182:20 0
7 *21:8 *191:12 0.00218476
8 sine_out[5] sine_out[6] 0
9 *8:12 *21:8 0.00131106
*RES
1 *524:X *21:8 36.1813 
2 *21:8 sine_out[6] 21.7819 
*END

*D_NET *22 0.00267891
*CONN
*P sine_out[7] O
*I *525:X O *D sg13g2_buf_1
*CAP
1 sine_out[7] 0.0010269
2 *525:X 0.0010269
3 sine_out[7] sine_out[8] 0
4 sine_out[7] *525:A 0
5 sine_out[7] *23:14 0
6 sine_out[7] *67:28 0.000144728
7 sine_out[7] *179:16 0
8 sine_out[7] *182:20 0.000368692
9 sine_out[5] sine_out[7] 0.000111685
10 sine_out[6] sine_out[7] 0
11 *8:12 sine_out[7] 0
12 *19:14 sine_out[7] 0
*RES
1 *525:X sine_out[7] 49.9601 
*END

*D_NET *23 0.00450949
*CONN
*P sine_out[8] O
*I *527:X O *D sg13g2_buf_1
*CAP
1 sine_out[8] 0.000209028
2 *527:X 7.11045e-05
3 *23:14 0.000867125
4 *23:8 0.000729202
5 sine_out[8] sine_out[9] 0
6 sine_out[7] sine_out[8] 0
7 sine_out[7] *23:14 0
8 *8:8 *23:8 0.000234726
9 *8:12 *23:14 0.00124784
10 *19:14 *23:14 0.00115047
*RES
1 *527:X *23:8 41.0918 
2 *23:8 *23:14 48.3224 
3 *23:14 sine_out[8] 2.2763 
*END

*D_NET *24 0.00523158
*CONN
*P sine_out[9] O
*I *528:X O *D sg13g2_buf_1
*CAP
1 sine_out[9] 0.000675271
2 *528:X 0
3 *24:10 0.00187593
4 *24:6 0.00120066
5 sine_out[9] *182:10 0.000862164
6 sine_out[9] *198:20 0
7 *24:10 *106:23 0.000276662
8 *24:10 *153:38 0.000340885
9 *24:10 *185:10 0
10 *24:10 *186:20 0
11 sine_out[10] sine_out[9] 0
12 sine_out[8] sine_out[9] 0
*RES
1 *528:X *24:6 40 
2 *24:6 *24:10 30.4854 
3 *24:10 sine_out[9] 27.2203 
*END

*D_NET *25 0.00118399
*CONN
*I *486:D I *D sg13g2_dfrbpq_1
*I *362:Y O *D sg13g2_nor2_1
*CAP
1 *486:D 0.000130961
2 *362:Y 0.000461035
3 *25:8 0.000591996
4 *486:D *477:A 0
5 *25:8 *158:20 0
6 *25:8 *172:23 0
*RES
1 *362:Y *25:8 45.2942 
2 *25:8 *486:D 41.1845 
*END

*D_NET *26 0.000907007
*CONN
*I *485:D I *D sg13g2_dfrbpq_1
*I *353:Y O *D sg13g2_xnor2_1
*CAP
1 *485:D 0.000224697
2 *353:Y 0.000132457
3 *26:8 0.000357154
4 *485:D *519:A 8.00842e-05
5 *485:D *530:A 0.000112614
6 *26:8 *49:8 0
7 sine_out[1] *26:8 0
*RES
1 *353:Y *26:8 41.339 
2 *26:8 *485:D 42.2866 
*END

*D_NET *27 0.00379471
*CONN
*I *493:A I *D sg13g2_buf_8
*I *494:A I *D sg13g2_buf_2
*I *486:Q O *D sg13g2_dfrbpq_1
*CAP
1 *493:A 0
2 *494:A 0
3 *486:Q 0.000894289
4 *27:14 0.000103645
5 *27:8 0.000997934
6 *27:8 *366:A 0.000306869
7 *27:8 *172:29 0
8 *27:8 *210:45 0
9 *27:8 *210:51 0
10 *27:8 *211:16 0.00027444
11 *27:8 *211:25 0.000565908
12 *27:8 *213:8 0.0001773
13 *27:8 *214:10 0.000241983
14 *27:8 *215:8 0
15 *27:14 *194:36 0
16 *27:14 *213:10 0.000232339
*RES
1 *486:Q *27:8 29.785 
2 *27:8 *27:14 41.0918 
3 *27:14 *494:A 20 
4 *27:8 *493:A 20 
*END

*D_NET *28 0.00385365
*CONN
*I *351:C I *D sg13g2_nand4_1
*I *513:A I *D sg13g2_buf_8
*I *385:A1 I *D sg13g2_o21ai_1
*I *512:A I *D sg13g2_buf_8
*I *478:Q O *D sg13g2_dfrbpq_2
*CAP
1 *351:C 0.000181704
2 *513:A 0
3 *385:A1 0
4 *512:A 0
5 *478:Q 0.00023763
6 *28:29 0.000149226
7 *28:23 0.000395112
8 *28:16 0.000507736
9 *28:10 0.000443554
10 *28:8 0.00023763
11 *351:C *351:B 0.000270947
12 *351:C *351:D 1.30907e-05
13 *351:C *161:20 0
14 *28:8 *211:36 0
15 *28:8 *215:12 7.56308e-05
16 *28:8 *215:34 0.000522095
17 *28:16 *161:20 4.77425e-05
18 *28:16 *161:33 0.000112426
19 *28:16 *210:51 0
20 *28:16 *213:61 0.000271404
21 *28:23 *167:10 4.77425e-05
22 *28:23 *210:51 0
23 *28:23 *213:61 0
24 *28:29 *167:10 0.00033998
25 *28:29 *172:23 0
*RES
1 *478:Q *28:8 42.8222 
2 *28:8 *28:10 20 
3 *28:10 *28:16 2.9664 
4 *28:16 *512:A 20 
5 *28:16 *28:23 2.266 
6 *28:23 *28:29 41.8334 
7 *28:29 *385:A1 20 
8 *28:23 *513:A 20 
9 *28:10 *351:C 21.8102 
*END

*D_NET *29 0.000213826
*CONN
*I *511:A I *D sg13g2_buf_8
*I *479:Q O *D sg13g2_dfrbpq_1
*CAP
1 *511:A 0.000106913
2 *479:Q 0.000106913
*RES
1 *479:Q *511:A 41.1639 
*END

*D_NET *30 0.000660337
*CONN
*I *479:D I *D sg13g2_dfrbpq_1
*I *466:Y O *D sg13g2_xnor2_1
*CAP
1 *479:D 0.000171859
2 *466:Y 0.00015831
3 *30:8 0.000330169
4 *479:D *334:A 0
5 *479:D *479:RESET_B 0
6 *30:8 *334:B 0
*RES
1 *466:Y *30:8 41.339 
2 *30:8 *479:D 41.8334 
*END

*D_NET *31 0.000295701
*CONN
*I *509:A I *D sg13g2_buf_8
*I *480:Q O *D sg13g2_dfrbpq_1
*CAP
1 *509:A 2.90377e-05
2 *480:Q 9.49276e-05
3 *31:8 0.000123965
4 *509:A *367:B 4.77702e-05
5 *509:A *147:10 0
6 *31:8 *41:31 0
7 *31:8 *187:16 0
*RES
1 *480:Q *31:8 40.8446 
2 *31:8 *509:A 40.3193 
*END

*D_NET *32 0.00074315
*CONN
*I *480:D I *D sg13g2_dfrbpq_1
*I *467:X O *D sg13g2_xor2_1
*CAP
1 *480:D 0.000371575
2 *467:X 0.000371575
3 *480:D *173:10 0
4 *480:D *173:31 0
5 *480:D *187:103 0
*RES
1 *467:X *480:D 44.3157 
*END

*D_NET *33 0.000625274
*CONN
*I *506:A I *D sg13g2_buf_2
*I *481:Q O *D sg13g2_dfrbpq_1
*CAP
1 *506:A 0.000191777
2 *481:Q 0.000191777
3 *506:A *535:A 0.000241719
4 *506:A *187:24 0
5 *506:A *199:38 0
6 *506:A *207:8 0
*RES
1 *481:Q *506:A 42.2145 
*END

*D_NET *34 0.000582684
*CONN
*I *481:D I *D sg13g2_dfrbpq_1
*I *468:X O *D sg13g2_xor2_1
*CAP
1 *481:D 0.000291342
2 *468:X 0.000291342
3 *481:D *171:18 0
4 *481:D *205:35 0
*RES
1 *468:X *481:D 42.8325 
*END

*D_NET *35 0.000735875
*CONN
*I *502:A I *D sg13g2_buf_8
*I *482:Q O *D sg13g2_dfrbpq_1
*CAP
1 *502:A 0.000209319
2 *482:Q 0.000209319
3 *502:A *143:14 0.000317237
4 *502:A *203:18 0
*RES
1 *482:Q *502:A 42.4617 
*END

*D_NET *36 0.000700691
*CONN
*I *482:D I *D sg13g2_dfrbpq_1
*I *469:X O *D sg13g2_xor2_1
*CAP
1 *482:D 0.000350345
2 *469:X 0.000350345
3 *482:D *331:A 0
4 *482:D *469:B 0
5 *482:D *482:RESET_B 0
6 *482:D *140:10 0
*RES
1 *469:X *482:D 43.0797 
*END

*D_NET *37 0.0017799
*CONN
*I *498:A I *D sg13g2_buf_8
*I *497:A I *D sg13g2_buf_8
*I *483:Q O *D sg13g2_dfrbpq_2
*CAP
1 *498:A 0
2 *497:A 0
3 *483:Q 0.000178814
4 *37:14 0.000256463
5 *37:6 0.000435276
6 *37:6 *455:B 0
7 *37:6 *175:8 0
8 *37:14 *455:A 0.000338477
9 *37:14 *455:B 0.000338477
10 sine_out[12] *37:14 0.000232389
11 sine_out[13] *37:14 0
*RES
1 *483:Q *37:6 21.8334 
2 *37:6 *37:14 43.3578 
3 *37:14 *497:A 20 
4 *37:6 *498:A 20 
*END

*D_NET *38 0.00100398
*CONN
*I *483:D I *D sg13g2_dfrbpq_2
*I *343:X O *D sg13g2_xor2_1
*CAP
1 *483:D 9.90022e-05
2 *343:X 0.000142084
3 *38:10 0.000241086
4 *483:D *174:28 1.54008e-05
5 *38:10 *343:B 0
6 *38:10 *346:B 0.000144027
7 *38:10 *196:14 0.000181192
8 *38:10 *216:16 0.000181192
*RES
1 *343:X *38:10 41.8128 
2 *38:10 *483:D 40.8858 
*END

*D_NET *39 0.0014542
*CONN
*I *496:A I *D sg13g2_buf_8
*I *484:Q O *D sg13g2_dfrbpq_1
*CAP
1 *496:A 0.000294182
2 *484:Q 0.000139561
3 *39:10 0.000433743
4 *496:A *171:45 0
5 *496:A *175:8 0
6 *496:A *212:10 0.000403668
7 *39:10 *175:8 0
8 *39:10 *212:10 0.000183049
9 *9:14 *39:10 0
10 *10:8 *39:10 0
*RES
1 *484:Q *39:10 41.6274 
2 *39:10 *496:A 42.8269 
*END

*D_NET *40 0.00297362
*CONN
*I *484:D I *D sg13g2_dfrbpq_1
*I *346:Y O *D sg13g2_xnor2_1
*CAP
1 *484:D 6.34071e-05
2 *346:Y 0.000519913
3 *40:8 0.000583321
4 *484:D *484:RESET_B 0
5 *484:D *182:20 0
6 *40:8 *174:34 7.53209e-05
7 sine_out[14] *40:8 0.00173165
8 sine_out[15] *40:8 0
9 *14:14 *40:8 0
*RES
1 *346:Y *40:8 48.0134 
2 *40:8 *484:D 40.6695 
*END

*D_NET *41 0.00595924
*CONN
*I *336:A1 I *D sg13g2_o21ai_1
*I *399:A I *D sg13g2_nand2_1
*I *367:A I *D sg13g2_nor2_1
*I *478:D I *D sg13g2_dfrbpq_2
*I *327:Y O *D sg13g2_inv_2
*CAP
1 *336:A1 0
2 *399:A 0.000119839
3 *367:A 0.00038042
4 *478:D 4.37077e-05
5 *327:Y 8.6737e-05
6 *41:31 0.00105452
7 *41:23 0.00119666
8 *41:8 0.000772849
9 *367:A *367:B 0.000337408
10 *367:A *163:14 0.00014069
11 *399:A *333:A 2.21223e-05
12 *399:A *160:43 0
13 *399:A *161:20 0.000104228
14 *399:A *194:49 0.000159096
15 *399:A *210:8 0
16 *478:D *466:A 8.00842e-05
17 *478:D *477:A 8.00842e-05
18 *41:8 *327:A 0
19 *41:23 *328:A 0.000209756
20 *41:23 *336:A2 0.000306869
21 *41:23 *135:19 3.23417e-05
22 *41:23 *172:37 0.00027467
23 *41:23 *215:12 0.000181192
24 *41:31 *333:A 0.000231282
25 *41:31 *334:A 0
26 *41:31 *336:A2 1.54008e-05
27 *41:31 *337:B 0
28 *41:31 *136:8 0
29 *41:31 *163:14 0
30 *41:31 *173:31 0.000129281
31 *41:31 *187:120 0
32 *31:8 *41:31 0
*RES
1 *327:Y *41:8 40.8446 
2 *41:8 *478:D 40.5356 
3 *41:8 *41:23 26.8186 
4 *41:23 *41:31 25.9019 
5 *41:31 *367:A 43.9037 
6 *41:31 *399:A 41.5424 
7 *41:23 *336:A1 20 
*END

*D_NET *42 0.000461209
*CONN
*I *478:RESET_B I *D sg13g2_dfrbpq_2
*I *328:Y O *D sg13g2_inv_1
*CAP
1 *478:RESET_B 0.000117955
2 *328:Y 0.000117955
3 *478:RESET_B *328:A 0.000209871
4 *478:RESET_B *172:29 0
5 *478:RESET_B *172:37 1.54285e-05
*RES
1 *328:Y *478:RESET_B 41.4008 
*END

*D_NET *43 0.00113032
*CONN
*I *479:RESET_B I *D sg13g2_dfrbpq_1
*I *470:Y O *D sg13g2_inv_1
*CAP
1 *479:RESET_B 0.000374578
2 *470:Y 0.000134371
3 *43:8 0.000508949
4 *479:RESET_B *334:A 0.000112426
5 *479:RESET_B *477:A 0
6 *479:RESET_B *134:10 0
7 *43:8 *334:A 0
8 *43:8 *134:10 0
9 *479:D *479:RESET_B 0
*RES
1 *470:Y *43:8 41.339 
2 *43:8 *479:RESET_B 43.3475 
*END

*D_NET *44 0.000480763
*CONN
*I *480:RESET_B I *D sg13g2_dfrbpq_1
*I *471:Y O *D sg13g2_inv_1
*CAP
1 *480:RESET_B 0.00018918
2 *471:Y 0.00018918
3 *480:RESET_B *187:103 1.54008e-05
4 *480:RESET_B *187:120 8.70016e-05
*RES
1 *471:Y *480:RESET_B 42.369 
*END

*D_NET *45 0.000627066
*CONN
*I *481:RESET_B I *D sg13g2_dfrbpq_1
*I *472:Y O *D sg13g2_inv_1
*CAP
1 *481:RESET_B 3.37419e-05
2 *472:Y 0.000109892
3 *45:8 0.000143634
4 *481:RESET_B *187:49 0
5 *45:8 *171:18 0.000339797
6 *45:8 *216:16 0
*RES
1 *472:Y *45:8 41.5862 
2 *45:8 *481:RESET_B 40.3193 
*END

*D_NET *46 0.00274611
*CONN
*I *482:RESET_B I *D sg13g2_dfrbpq_1
*I *473:Y O *D sg13g2_inv_1
*CAP
1 *482:RESET_B 0.000276675
2 *473:Y 0.000583703
3 *46:8 0.000860378
4 *482:RESET_B *331:B 0
5 *482:RESET_B *201:12 0
6 *46:8 *174:34 0
7 *46:8 *175:12 0.00102536
8 *46:8 *187:49 0
9 *482:D *482:RESET_B 0
10 *14:14 *46:8 0
11 *15:14 *46:8 0
*RES
1 *473:Y *46:8 47.2718 
2 *46:8 *482:RESET_B 42.266 
*END

*D_NET *47 0.00348532
*CONN
*I *483:RESET_B I *D sg13g2_dfrbpq_2
*I *474:Y O *D sg13g2_inv_1
*CAP
1 *483:RESET_B 0.000962757
2 *474:Y 0.00014845
3 *47:8 0.00111121
4 *483:RESET_B *343:B 0
5 *483:RESET_B *129:10 0.000554578
6 *483:RESET_B *142:8 0
7 *483:RESET_B *196:14 0.000499471
8 *47:8 *482:CLK 0
9 *47:8 *199:38 0.000208853
10 sine_out[13] *483:RESET_B 0
*RES
1 *474:Y *47:8 41.4008 
2 *47:8 *483:RESET_B 49.0022 
*END

*D_NET *48 0.00189029
*CONN
*I *484:RESET_B I *D sg13g2_dfrbpq_1
*I *475:Y O *D sg13g2_inv_1
*CAP
1 *484:RESET_B 0.000694569
2 *475:Y 0.000694569
3 *484:RESET_B *455:A 0.000501152
4 *484:RESET_B *182:20 0
5 *484:D *484:RESET_B 0
*RES
1 *475:Y *484:RESET_B 47.1997 
*END

*D_NET *49 0.000260951
*CONN
*I *485:RESET_B I *D sg13g2_dfrbpq_1
*I *476:Y O *D sg13g2_inv_1
*CAP
1 *485:RESET_B 0
2 *476:Y 0.000130476
3 *49:8 0.000130476
4 *49:8 *70:10 0
5 *49:8 *177:14 0
6 *26:8 *49:8 0
*RES
1 *476:Y *49:8 41.5862 
2 *49:8 *485:RESET_B 40 
*END

*D_NET *50 0.000375121
*CONN
*I *486:RESET_B I *D sg13g2_dfrbpq_1
*I *477:Y O *D sg13g2_inv_1
*CAP
1 *486:RESET_B 0.00018756
2 *477:Y 0.00018756
3 *486:RESET_B *477:A 0
4 *486:RESET_B *172:23 0
5 *486:RESET_B *172:29 0
*RES
1 *477:Y *486:RESET_B 42.369 
*END

*D_NET *51 0.00157449
*CONN
*I *390:C I *D sg13g2_nor4_1
*I *374:Y O *D sg13g2_a221oi_1
*CAP
1 *390:C 0.000130446
2 *374:Y 0.000227508
3 *51:10 0.000357954
4 *390:C *390:B 0.00013413
5 *390:C *126:31 0
6 *51:10 *361:A2 0
7 *51:10 *374:A1 4.75166e-05
8 *51:10 *456:A2 0
9 *51:10 *168:46 0
10 *51:10 *196:68 0.000392471
11 *51:10 *198:30 0.000284465
12 *487:A *390:C 0
*RES
1 *374:Y *51:10 42.8943 
2 *51:10 *390:C 41.4678 
*END

*D_NET *52 0.00331256
*CONN
*I *376:B I *D sg13g2_and2_1
*I *411:A I *D sg13g2_xor2_1
*I *375:Y O *D sg13g2_a22oi_1
*CAP
1 *376:B 0
2 *411:A 0
3 *375:Y 0.000581035
4 *52:29 0.000259103
5 *52:14 0.000365115
6 *52:10 0.000687047
7 *52:10 *375:B2 0.00043573
8 *52:10 *375:A1 0
9 *52:10 *400:B 0.000144726
10 *52:10 *68:19 0
11 *52:10 *69:10 0
12 *52:10 *160:25 0
13 *52:10 *211:16 0
14 *52:14 *379:B_N 0.000176789
15 *52:14 *86:18 1.54282e-05
16 *52:14 *206:40 0
17 *52:29 *379:B_N 0.000225091
18 *52:29 *56:8 0.000235055
19 *52:29 *77:10 0
20 *52:29 *86:18 0.000112226
21 *52:29 *206:22 7.52158e-05
*RES
1 *375:Y *52:10 45.6753 
2 *52:10 *52:14 21.1845 
3 *52:14 *411:A 20 
4 *52:14 *52:29 43.0282 
5 *52:29 *376:B 20 
*END

*D_NET *53 0.00244195
*CONN
*I *382:B1 I *D sg13g2_a21oi_1
*I *393:A1 I *D sg13g2_o21ai_1
*I *376:X O *D sg13g2_and2_1
*CAP
1 *382:B1 0.000557125
2 *393:A1 0
3 *376:X 0.000203393
4 *53:12 0.000760518
5 *382:B1 *382:A1 0
6 *382:B1 *417:A1 2.21754e-05
7 *382:B1 *57:8 0.000234311
8 *382:B1 *57:12 0
9 *382:B1 *70:10 0.000435127
10 *382:B1 *71:10 0
11 *382:B1 *93:12 4.75151e-05
12 *382:B1 *208:105 0
13 *53:12 *56:8 0.000181781
14 *53:12 *57:8 0
15 *53:12 *206:22 0
*RES
1 *376:X *53:12 42.472 
2 *53:12 *393:A1 40 
3 *53:12 *382:B1 46.1388 
*END

*D_NET *54 0.00427005
*CONN
*I *437:A1 I *D sg13g2_a22oi_1
*I *383:A I *D sg13g2_nand2_1
*I *377:Y O *D sg13g2_nor2b_1
*CAP
1 *437:A1 0
2 *383:A 5.22652e-05
3 *377:Y 0.000476875
4 *54:28 0.000683281
5 *54:18 0.00110789
6 *383:A *383:B 0
7 *383:A *407:A2 0
8 *383:A *178:10 4.77702e-05
9 *54:18 *83:12 0.000358854
10 *54:18 *108:27 0.000144958
11 *54:18 *109:8 0.000282276
12 *54:18 *111:14 5.24248e-05
13 *54:18 *198:86 0
14 *54:18 *200:66 0
15 *54:18 *200:90 0
16 *54:28 *395:B1 7.51285e-05
17 *54:28 *430:A 0
18 *54:28 *438:B 4.77425e-05
19 *54:28 *443:A0 0.000175809
20 *54:28 *59:8 0
21 *54:28 *76:39 7.48209e-05
22 *54:28 *105:14 0.000112359
23 *54:28 *111:14 0.000127805
24 *54:28 *154:24 0.000369743
25 *54:28 *185:18 0
26 *54:28 *190:12 0
27 *54:28 *196:110 8.00444e-05
28 *54:28 *200:90 0
*RES
1 *377:Y *54:18 45.5929 
2 *54:18 *54:28 46.489 
3 *54:28 *383:A 40.5356 
4 *54:18 *437:A1 40 
*END

*D_NET *55 0.00254719
*CONN
*I *439:B I *D sg13g2_nor3_1
*I *416:A1 I *D sg13g2_o21ai_1
*I *378:Y O *D sg13g2_nand2b_1
*CAP
1 *439:B 0.000486677
2 *416:A1 0
3 *378:Y 0
4 *55:14 0.000413773
5 *55:4 0.000900449
6 *439:B *402:A1 8.00842e-05
7 *439:B *405:B1 0
8 *439:B *78:16 0
9 *439:B *82:8 0
10 *439:B *114:12 0
11 *439:B *148:63 0
12 *439:B *160:25 0
13 *439:B *170:29 0
14 *55:14 *386:A1 0.00011101
15 *55:14 *409:A2 0
16 *55:14 *415:A1 0
17 *55:14 *416:B1 0
18 *55:14 *416:A2 1.54008e-05
19 *55:14 *436:A1 0
20 *55:14 *63:18 0.000234224
21 *55:14 *148:63 0
22 *55:14 *160:25 0.000305575
23 *55:14 *202:58 0
*RES
1 *378:Y *55:4 20 
2 *55:4 *55:14 44.3878 
3 *55:14 *416:A1 20 
4 *55:4 *439:B 24.2642 
*END

*D_NET *56 0.00154562
*CONN
*I *380:B I *D sg13g2_nor2_1
*I *429:A I *D sg13g2_nor3_1
*I *379:Y O *D sg13g2_nor2b_1
*CAP
1 *380:B 0
2 *429:A 0.0002229
3 *379:Y 0.000253536
4 *56:10 0.0002229
5 *56:8 0.000253536
6 *429:A *429:B 0.000175913
7 *429:A *87:12 0
8 *429:A *206:40 0
9 *56:8 *77:10 0
10 *56:8 *206:22 0
11 *52:29 *56:8 0.000235055
12 *53:12 *56:8 0.000181781
*RES
1 *379:Y *56:8 43.0694 