*SPEF "ieee 1481-1999"
*DESIGN "DigitalSine"
*DATE "11:40:13 Sunday December 14, 2025"
*VENDOR "The OpenROAD Project"
*PROGRAM "OpenROAD"
*VERSION "341650e72dad0dc8571822ff8c5d9c5e365327f7"
*DESIGN_FLOW "NAME_SCOPE LOCAL" "PIN_CAP NONE"
*DIVIDER /
*DELIMITER :
*BUS_DELIMITER []
*T_UNIT 1 NS
*C_UNIT 1 PF
*R_UNIT 1 OHM
*L_UNIT 1 HENRY

*NAME_MAP
*3 clk
*4 rst
*5 sign
*6 signB
*7 sine_out[0]
*8 sine_out[10]
*9 sine_out[11]
*10 sine_out[12]
*11 sine_out[13]
*12 sine_out[14]
*13 sine_out[15]
*14 sine_out[16]
*15 sine_out[17]
*16 sine_out[18]
*17 sine_out[19]
*18 sine_out[1]
*19 sine_out[20]
*20 sine_out[21]
*21 sine_out[22]
*22 sine_out[23]
*23 sine_out[24]
*24 sine_out[25]
*25 sine_out[26]
*26 sine_out[27]
*27 sine_out[28]
*28 sine_out[29]
*29 sine_out[2]
*30 sine_out[30]
*31 sine_out[31]
*32 sine_out[32]
*33 sine_out[3]
*34 sine_out[4]
*35 sine_out[5]
*36 sine_out[6]
*37 sine_out[7]
*38 sine_out[8]
*39 sine_out[9]
*40 CTRL\.P0
*41 CTRL\.P1
*42 CTRL\.S0
*43 DPATH\.SUM\.Cout0
*44 DPATH\.SUM\.fa_1\.A
*45 DPATH\.SUM\.fa_1\.S
*46 DPATH\.SUM\.fa_2\.A
*47 DPATH\.SUM\.fa_2\.S
*48 DPATH\.SUM\.fa_3\.A
*49 DPATH\.SUM\.fa_3\.S
*50 DPATH\.SUM\.fa_4\.A
*51 DPATH\.SUM\.fa_4\.S
*52 DPATH\.SUM\.fa_5\.A
*53 DPATH\.SUM\.fa_5\.S
*54 DPATH\.SUM\.fa_6\.A
*55 DPATH\.SUM\.fa_6\.S
*56 DPATH\.SUM\.ha_0\.S
*57 _000_
*58 _001_
*59 _002_
*60 _003_
*61 _004_
*62 _005_
*63 _006_
*64 _007_
*65 _008_
*66 _009_
*67 _010_
*68 _011_
*69 _012_
*70 _013_
*71 _014_
*72 _015_
*73 _016_
*74 _017_
*75 _018_
*76 _019_
*77 _020_
*78 _021_
*79 _022_
*80 _023_
*81 _024_
*82 _025_
*83 _026_
*84 _027_
*85 _028_
*86 _029_
*87 _030_
*88 _031_
*89 _032_
*90 _033_
*91 _034_
*92 _035_
*93 _036_
*94 _037_
*95 _038_
*96 _039_
*97 _040_
*98 _041_
*99 _042_
*100 _043_
*101 _044_
*102 _045_
*103 _046_
*104 _047_
*105 _048_
*106 _049_
*107 _050_
*108 _051_
*109 _052_
*110 _053_
*111 _054_
*112 _055_
*113 _056_
*114 _057_
*115 _058_
*116 _059_
*117 _060_
*118 _061_
*119 _062_
*120 _063_
*121 _064_
*122 _065_
*123 _066_
*124 _067_
*125 _068_
*126 _069_
*127 _070_
*128 _071_
*129 _072_
*130 _073_
*131 _074_
*132 _075_
*133 _076_
*134 _077_
*135 _078_
*136 _079_
*137 _080_
*138 _081_
*139 _082_
*140 _083_
*141 _084_
*142 _085_
*143 _086_
*144 _087_
*145 _088_
*146 _089_
*147 _090_
*148 _091_
*149 _092_
*150 _093_
*151 _094_
*152 _095_
*153 _096_
*154 _097_
*155 _098_
*156 _099_
*157 _100_
*158 _101_
*159 _102_
*160 _103_
*161 _104_
*162 _105_
*163 _106_
*164 _107_
*165 _108_
*166 _109_
*167 _110_
*168 _111_
*169 _112_
*170 _113_
*171 _114_
*172 _115_
*173 _116_
*174 _117_
*175 _118_
*176 _119_
*177 _120_
*178 _121_
*179 _122_
*180 _123_
*181 _124_
*182 clknet_0_clk
*183 clknet_1_0__leaf_clk
*184 clknet_1_1__leaf_clk
*185 net1
*186 net10
*187 net11
*188 net12
*189 net13
*190 net14
*191 net15
*192 net16
*193 net17
*194 net18
*195 net19
*196 net2
*197 net20
*198 net21
*199 net22
*200 net23
*201 net24
*202 net25
*203 net26
*204 net27
*205 net28
*206 net29
*207 net3
*208 net30
*209 net31
*210 net32
*211 net33
*212 net34
*213 net35
*214 net36
*215 net37
*216 net38
*217 net39
*218 net4
*219 net40
*220 net41
*221 net42
*222 net43
*223 net44
*224 net5
*225 net53
*226 net54
*227 net55
*228 net56
*229 net57
*230 net58
*231 net59
*232 net6
*233 net60
*234 net61
*235 net62
*236 net63
*237 net64
*238 net65
*239 net66
*240 net67
*241 net68
*242 net69
*243 net7
*244 net70
*245 net71
*246 net72
*247 net73
*248 net74
*249 net75
*250 net76
*251 net77
*252 net8
*253 net9
*254 FILLER_0_0
*255 FILLER_0_100
*256 FILLER_0_107
*257 FILLER_0_114
*258 FILLER_0_121
*259 FILLER_0_128
*260 FILLER_0_14
*261 FILLER_0_21
*262 FILLER_0_33
*263 FILLER_0_35
*264 FILLER_0_39
*265 FILLER_0_46
*266 FILLER_0_50
*267 FILLER_0_55
*268 FILLER_0_7
*269 FILLER_0_72
*270 FILLER_0_79
*271 FILLER_0_86
*272 FILLER_0_93
*273 FILLER_10_0
*274 FILLER_10_103
*275 FILLER_10_113
*276 FILLER_10_124
*277 FILLER_10_128
*278 FILLER_10_72
*279 FILLER_10_79
*280 FILLER_10_81
*281 FILLER_10_92
*282 FILLER_10_99
*283 FILLER_11_0
*284 FILLER_11_109
*285 FILLER_11_116
*286 FILLER_11_128
*287 FILLER_11_2
*288 FILLER_11_31
*289 FILLER_11_37
*290 FILLER_11_52
*291 FILLER_11_81
*292 FILLER_11_88
*293 FILLER_11_98
*294 FILLER_12_110
*295 FILLER_12_23
*296 FILLER_12_5
*297 FILLER_12_81
*298 FILLER_12_93
*299 FILLER_12_95
*300 FILLER_13_10
*301 FILLER_13_104
*302 FILLER_13_110
*303 FILLER_13_126
*304 FILLER_13_128
*305 FILLER_13_24
*306 FILLER_13_26
*307 FILLER_13_32
*308 FILLER_13_34
*309 FILLER_13_83
*310 FILLER_13_85
*311 FILLER_13_98
*312 FILLER_14_0
*313 FILLER_14_114
*314 FILLER_14_128
*315 FILLER_14_2
*316 FILLER_14_36
*317 FILLER_14_74
*318 FILLER_14_76
*319 FILLER_14_81
*320 FILLER_14_88
*321 FILLER_15_0
*322 FILLER_1_0
*323 FILLER_1_101
*324 FILLER_1_108
*325 FILLER_1_115
*326 FILLER_1_122
*327 FILLER_1_14
*328 FILLER_1_21
*329 FILLER_1_23
*330 FILLER_1_60
*331 FILLER_1_7
*332 FILLER_2_116
*333 FILLER_2_12
*334 FILLER_2_123
*335 FILLER_2_19
*336 FILLER_2_5
*337 FILLER_3_0
*338 FILLER_3_121
*339 FILLER_3_128
*340 FILLER_3_14
*341 FILLER_3_18
*342 FILLER_3_36
*343 FILLER_3_49
*344 FILLER_3_7
*345 FILLER_3_71
*346 FILLER_4_0
*347 FILLER_4_14
*348 FILLER_4_21
*349 FILLER_4_53
*350 FILLER_4_7
*351 FILLER_4_73
*352 FILLER_5_0
*353 FILLER_5_107
*354 FILLER_5_14
*355 FILLER_5_21
*356 FILLER_5_23
*357 FILLER_5_7
*358 FILLER_5_77
*359 FILLER_5_92
*360 FILLER_6_0
*361 FILLER_6_14
*362 FILLER_6_7
*363 FILLER_7_0
*364 FILLER_7_56
*365 FILLER_7_63
*366 FILLER_7_7
*367 FILLER_7_70
*368 FILLER_7_74
*369 FILLER_7_9
*370 FILLER_7_93
*371 FILLER_8_108
*372 FILLER_8_115
*373 FILLER_8_22
*374 FILLER_8_33
*375 FILLER_8_35
*376 FILLER_8_46
*377 FILLER_8_55
*378 FILLER_8_57
*379 FILLER_8_62
*380 FILLER_8_66
*381 FILLER_8_91
*382 FILLER_9_104
*383 FILLER_9_108
*384 FILLER_9_128
*385 FILLER_9_57
*386 FILLER_9_61
*387 FILLER_9_69
*388 FILLER_9_97
*389 _125_
*390 _126_
*391 _127_
*392 _128_
*393 _129_
*394 _130_
*395 _131_
*396 _132_
*397 _133_
*398 _134_
*399 _135_
*400 _136_
*401 _137_
*402 _138_
*403 _139_
*404 _140_
*405 _141_
*406 _142_
*407 _143_
*408 _144_
*409 _145_
*410 _146_
*411 _147_
*412 _148_
*413 _149_
*414 _150_
*415 _151_
*416 _152_
*417 _153_
*418 _154_
*419 _155_
*420 _156_
*421 _157_
*422 _158_
*423 _159_
*424 _160_
*425 _161_
*426 _162_
*427 _163_
*428 _164_
*429 _165_
*430 _166_
*431 _167_
*432 _168_
*433 _169_
*434 _170_
*435 _171_
*436 _172_
*437 _173_
*438 _174_
*439 _175_
*440 _176_
*441 _177_
*442 _178_
*443 _179_
*444 _180_
*445 _181_
*446 _182_
*447 _183_
*448 _184_
*449 _185_
*450 _186_
*451 _187_
*452 _188_
*453 _189_
*454 _190_
*455 _191_
*456 _192_
*457 _193_
*458 _194_
*459 _195_
*460 _196_
*461 _197_
*462 _198_
*463 _199_
*464 _200_
*465 _201_
*466 _202_
*467 _203_
*468 _204_
*469 _205_
*470 _206_
*471 _207_
*472 _208_
*473 _209_
*474 _210_
*475 _211_
*476 _212_
*477 _213_
*478 _214_
*479 _215_
*480 _216_
*481 _217_
*482 _218_
*483 _219_
*484 _220_
*485 _221_
*486 _222_
*487 _223_
*488 _224_
*489 _225_
*490 _226_
*491 _227_
*492 _228_
*493 _229_
*494 _230_
*495 _231_
*496 _232_
*497 _233_
*498 _234_
*499 _235_
*500 _236_
*501 _237_
*502 _238_
*503 _239_
*504 _240_
*505 _241_
*506 _242_
*507 _243_
*508 _244_
*509 _245_
*510 _246_
*511 _247_
*512 _248_
*513 _249_
*514 _250_
*515 _251_
*516 _252_
*517 _253_
*518 _254_
*519 _255_
*520 _256_
*521 _257_
*522 _258_
*523 _259_
*524 _260_
*525 _261_
*526 _262_
*527 _263_
*528 _264_
*529 _265_
*530 _266_
*531 _267_
*532 _268_
*533 _269_
*534 _270_
*535 _271_
*536 _272_
*537 _273_
*538 _274_
*539 _275_
*540 _276_
*541 _277_
*542 _278_
*543 _279_
*544 _280_
*545 _281_
*546 _282_
*547 _283_
*548 _284_
*549 _285_
*550 _286_
*551 _287_
*552 _288_
*553 _289_
*554 _290_
*555 _291_
*556 _292_
*557 _293_
*558 _294_
*559 _295_
*560 _296_
*561 _297_
*562 _298_
*563 _299_
*564 _300_
*565 _301_
*566 clkbuf_0_clk
*567 clkbuf_1_0__f_clk
*568 clkbuf_1_1__f_clk
*569 clkload0
*570 fanout37
*571 fanout53
*572 fanout54
*573 fanout55
*574 fanout56
*575 fanout57
*576 fanout58
*577 fanout59
*578 fanout60
*579 fanout61
*580 fanout62
*581 fanout63
*582 fanout64
*583 fanout65
*584 fanout66
*585 fanout67
*586 fanout68
*587 fanout69
*588 fanout70
*589 fanout71
*590 fanout72
*591 fanout73
*592 fanout74
*593 fanout75
*594 fanout76
*595 fanout77
*596 hold1
*597 hold2
*598 hold3
*599 hold4
*600 hold5
*601 hold6
*602 hold7
*603 input1
*604 output10
*605 output11
*606 output12
*607 output13
*608 output14
*609 output15
*610 output16
*611 output17
*612 output18
*613 output19
*614 output2
*615 output20
*616 output21
*617 output22
*618 output23
*619 output24
*620 output25
*621 output26
*622 output27
*623 output28
*624 output29
*625 output3
*626 output30
*627 output31
*628 output32
*629 output33
*630 output34
*631 output35
*632 output36
*633 output4
*634 output5
*635 output6
*636 output7
*637 output8
*638 output9

*PORTS
clk I
rst I
sign O
signB O
sine_out[0] O
sine_out[10] O
sine_out[11] O
sine_out[12] O
sine_out[13] O
sine_out[14] O
sine_out[15] O
sine_out[16] O
sine_out[17] O
sine_out[18] O
sine_out[19] O
sine_out[1] O
sine_out[20] O
sine_out[21] O
sine_out[22] O
sine_out[23] O
sine_out[24] O
sine_out[25] O
sine_out[26] O
sine_out[27] O
sine_out[28] O
sine_out[29] O
sine_out[2] O
sine_out[30] O
sine_out[31] O
sine_out[32] O
sine_out[3] O
sine_out[4] O
sine_out[5] O
sine_out[6] O
sine_out[7] O
sine_out[8] O
sine_out[9] O

*D_NET *3 0.00907005
*CONN
*P clk I
*I *566:A I *D sg13g2_buf_8
*CAP
1 clk 0.00197043
2 *566:A 0
3 *3:13 0.000716753
4 *3:9 0.00268718
5 *3:9 *50:6 0.000239981
6 *3:9 *50:17 0.000176669
7 *3:9 *52:10 0.000242355
8 *3:9 *54:10 0
9 *3:9 *228:105 0.00115008
10 *3:9 *236:42 0
11 *3:9 *241:8 0
12 *3:13 *92:10 0
13 *3:13 *241:12 0.0018866
*RES
1 clk *3:9 42.3046 
2 *3:9 *3:13 30.2382 
3 *3:13 *566:A 40 
*END

*D_NET *4 0.000716484
*CONN
*P rst I
*I *603:A I *D sg13g2_buf_1
*CAP
1 rst 0.000358242
2 *603:A 0.000358242
3 *603:A *215:8 0
*RES
1 rst *603:A 44.1664 
*END

*D_NET *5 0.000717062
*CONN
*P sign O
*I *614:X O *D sg13g2_buf_2
*CAP
1 sign 0.000358531
2 *614:X 0.000358531
3 sign *614:A 0
*RES
1 *614:X sign 44.1612 
*END

*D_NET *6 0.00109829
*CONN
*P signB O
*I *625:X O *D sg13g2_buf_2
*CAP
1 signB 0.000428037
2 *625:X 0.000428037
3 signB sine_out[0] 0.000242213
*RES
1 *625:X signB 45.0264 
*END

*D_NET *7 0.00416781
*CONN
*P sine_out[0] O
*I *633:X O *D sg13g2_buf_2
*CAP
1 sine_out[0] 0.00147782
2 *633:X 0.00147782
3 sine_out[0] sine_out[1] 0.000339726
4 sine_out[0] *34:10 0.000630233
5 sine_out[0] *207:26 0
6 signB sine_out[0] 0.000242213
*RES
1 *633:X sine_out[0] 37.1598 
*END

*D_NET *8 0.00282311
*CONN
*P sine_out[10] O
*I *634:X O *D sg13g2_buf_2
*CAP
1 sine_out[10] 0.00018712
2 *634:X 0.000941598
3 *8:8 0.00112872
4 sine_out[10] sine_out[11] 0
5 sine_out[10] sine_out[9] 0
6 *8:8 sine_out[8] 0.000565675
7 *8:8 sine_out[9] 0
8 *8:8 *9:10 0
*RES
1 *634:X *8:8 48.9713 
2 *8:8 sine_out[10] 22.0703 
*END

*D_NET *9 0.00204579
*CONN
*P sine_out[11] O
*I *635:X O *D sg13g2_buf_2
*CAP
1 sine_out[11] 0.000452351
2 *635:X 0.000562846
3 *9:10 0.0010152
4 sine_out[11] sine_out[12] 0
5 sine_out[11] sine_out[9] 0
6 *9:10 sine_out[12] 0
7 *9:10 *10:10 0
8 *9:10 *214:10 1.54008e-05
9 sine_out[10] sine_out[11] 0
10 *8:8 *9:10 0
*RES
1 *635:X *9:10 45.7989 
2 *9:10 sine_out[11] 24.8291 
*END

*D_NET *10 0.00241309
*CONN
*P sine_out[12] O
*I *636:X O *D sg13g2_buf_2
*CAP
1 sine_out[12] 0.000763377
2 *636:X 0.000160578
3 *10:10 0.000923956
4 sine_out[12] sine_out[13] 0.000565178
5 *10:10 sine_out[13] 0
6 *10:10 *636:A 0
7 *10:10 *211:20 0
8 sine_out[11] sine_out[12] 0
9 *9:10 sine_out[12] 0
10 *9:10 *10:10 0
*RES
1 *636:X *10:10 41.6274 
2 *10:10 sine_out[12] 28.9198 
*END

*D_NET *11 0.00238742
*CONN
*P sine_out[13] O
*I *637:X O *D sg13g2_buf_2
*CAP
1 sine_out[13] 0.000903468
2 *637:X 0.000903468
3 sine_out[13] sine_out[14] 0
4 sine_out[13] *637:A 1.53099e-05
5 sine_out[12] sine_out[13] 0.000565178
6 *10:10 sine_out[13] 0
*RES
1 *637:X sine_out[13] 30.6502 
*END

*D_NET *12 0.00173341
*CONN
*P sine_out[14] O
*I *638:X O *D sg13g2_buf_2
*CAP
1 sine_out[14] 0.000866706
2 *638:X 0.000866706
3 sine_out[14] sine_out[15] 0
4 sine_out[13] sine_out[14] 0
*RES
1 *638:X sine_out[14] 30.0528 
*END

*D_NET *13 0.00168679
*CONN
*P sine_out[15] O
*I *604:X O *D sg13g2_buf_2
*CAP
1 sine_out[15] 0.000843397
2 *604:X 0.000843397
3 sine_out[15] sine_out[16] 0
4 sine_out[15] *66:46 0
5 sine_out[14] sine_out[15] 0
*RES
1 *604:X sine_out[15] 25.2234 
*END

*D_NET *14 0.00172513
*CONN
*P sine_out[16] O
*I *605:X O *D sg13g2_buf_2
*CAP
1 sine_out[16] 0.000854853
2 *605:X 0.000854853
3 sine_out[16] sine_out[17] 0
4 sine_out[16] *187:22 1.54285e-05
5 sine_out[15] sine_out[16] 0
*RES
1 *605:X sine_out[16] 29.7026 
*END

*D_NET *15 0.00165823
*CONN
*P sine_out[17] O
*I *606:X O *D sg13g2_buf_2
*CAP
1 sine_out[17] 0.000829114
2 *606:X 0.000829114
3 sine_out[17] sine_out[18] 0
4 sine_out[17] *606:A 0
5 sine_out[17] *187:22 0
6 sine_out[16] sine_out[17] 0
*RES
1 *606:X sine_out[17] 29.3524 
*END

*D_NET *16 0.00166948
*CONN
*P sine_out[18] O
*I *607:X O *D sg13g2_buf_2
*CAP
1 sine_out[18] 0.000827024
2 *607:X 0.000827024
3 sine_out[18] sine_out[19] 0
4 sine_out[18] *606:A 1.54285e-05
5 sine_out[18] *607:A 0
6 sine_out[17] sine_out[18] 0
*RES
1 *607:X sine_out[18] 29.7026 
*END

*D_NET *17 0.00186054
*CONN
*P sine_out[19] O
*I *608:X O *D sg13g2_buf_2
*CAP
1 sine_out[19] 0.000930272
2 *608:X 0.000930272
3 sine_out[19] sine_out[20] 0
4 sine_out[19] *607:A 0
5 sine_out[19] *608:A 0
6 sine_out[18] sine_out[19] 0
*RES
1 *608:X sine_out[19] 30.0528 
*END

*D_NET *18 0.00399673
*CONN
*P sine_out[1] O
*I *609:X O *D sg13g2_buf_2
*CAP
1 sine_out[1] 0.00138491
2 *609:X 0.00138491
3 sine_out[1] sine_out[2] 0
4 sine_out[1] *621:A 0
5 sine_out[1] *34:10 0.00072685
6 sine_out[1] *207:26 1.54556e-05
7 sine_out[1] *209:14 0.000144869
8 sine_out[0] sine_out[1] 0.000339726
*RES
1 *609:X sine_out[1] 34.7496 
*END

*D_NET *19 0.00196451
*CONN
*P sine_out[20] O
*I *610:X O *D sg13g2_buf_2
*CAP
1 sine_out[20] 0.000982254
2 *610:X 0.000982254
3 sine_out[20] sine_out[21] 0
4 sine_out[20] *608:A 0
5 sine_out[20] *610:A 0
6 sine_out[19] sine_out[20] 0
*RES
1 *610:X sine_out[20] 30.0774 
*END

*D_NET *20 0.00180094
*CONN
*P sine_out[21] O
*I *611:X O *D sg13g2_buf_2
*CAP
1 sine_out[21] 0.00090047
2 *611:X 0.00090047
3 sine_out[21] sine_out[22] 0
4 sine_out[21] sine_out[23] 0
5 sine_out[21] *610:A 0
6 sine_out[21] *21:10 0
7 sine_out[20] sine_out[21] 0
*RES
1 *611:X sine_out[21] 30.6502 
*END

*D_NET *21 0.00248704
*CONN
*P sine_out[22] O
*I *612:X O *D sg13g2_buf_2
*CAP
1 sine_out[22] 0.000118765
2 *612:X 0.000825978
3 *21:10 0.000944743
4 sine_out[22] sine_out[23] 0
5 *21:10 sine_out[23] 0.000597557
6 *21:10 sine_out[24] 0
7 *21:10 *22:10 0
8 sine_out[21] sine_out[22] 0
9 sine_out[21] *21:10 0
*RES
1 *612:X *21:10 49.4451 
2 *21:10 sine_out[22] 21.3493 
*END

*D_NET *22 0.00265828
*CONN
*P sine_out[23] O
*I *613:X O *D sg13g2_buf_2
*CAP
1 sine_out[23] 0.00042983
2 *613:X 0.000560582
3 *22:10 0.000990412
4 sine_out[23] sine_out[24] 0
5 *22:10 sine_out[24] 0
6 *22:10 sine_out[25] 7.98942e-05
7 *22:10 *23:10 0
8 sine_out[21] sine_out[23] 0
9 sine_out[22] sine_out[23] 0
10 *21:10 sine_out[23] 0.000597557
11 *21:10 *22:10 0
*RES
1 *613:X *22:10 46.0461 
2 *22:10 sine_out[23] 25.2427 
*END

*D_NET *23 0.00233073
*CONN
*P sine_out[24] O
*I *615:X O *D sg13g2_buf_2
*CAP
1 sine_out[24] 0.000549344
2 *615:X 0.000497951
3 *23:10 0.0010473
4 sine_out[24] sine_out[25] 0
5 *23:10 sine_out[27] 0
6 *23:10 *24:10 0.000236139
7 sine_out[23] sine_out[24] 0
8 *21:10 sine_out[24] 0
9 *22:10 sine_out[24] 0
10 *22:10 *23:10 0
*RES
1 *615:X *23:10 45.6444 
2 *23:10 sine_out[24] 24.8268 
*END

*D_NET *24 0.00300418
*CONN
*P sine_out[25] O
*I *616:X O *D sg13g2_buf_2
*CAP
1 sine_out[25] 0.000498093
2 *616:X 0.000491829
3 *24:10 0.000989922
4 sine_out[25] sine_out[26] 0
5 *24:10 sine_out[27] 0.000403815
6 *24:10 sine_out[28] 0
7 *24:10 *428:A2 1.54282e-05
8 *24:10 *25:10 0.000289056
9 sine_out[24] sine_out[25] 0
10 *22:10 sine_out[25] 7.98942e-05
11 *23:10 *24:10 0.000236139
*RES
1 *616:X *24:10 46.1079 
2 *24:10 sine_out[25] 21.2841 
*END

*D_NET *25 0.00285156
*CONN
*P sine_out[26] O
*I *617:X O *D sg13g2_buf_2
*CAP
1 sine_out[26] 0.000479814
2 *617:X 0.000728961
3 *25:10 0.00120878
4 sine_out[26] sine_out[27] 0
5 *25:10 sine_out[28] 0.000144956
6 *25:10 *32:16 0
7 sine_out[25] sine_out[26] 0
8 *24:10 *25:10 0.000289056
*RES
1 *617:X *25:10 47.8074 
2 *25:10 sine_out[26] 25.459 
*END

*D_NET *26 0.00293642
*CONN
*P sine_out[27] O
*I *618:X O *D sg13g2_buf_2
*CAP
1 sine_out[27] 0.000710676
2 *618:X 0.000475521
3 *26:12 0.0011862
4 sine_out[27] sine_out[28] 0
5 *26:12 *28:8 0.000144814
6 *26:12 *32:16 0
7 *26:12 *75:29 1.54008e-05
8 *26:12 *193:12 0
9 *26:12 *228:22 0
10 sine_out[26] sine_out[27] 0
11 *23:10 sine_out[27] 0
12 *24:10 sine_out[27] 0.000403815
*RES
1 *618:X *26:12 45.3457 
2 *26:12 sine_out[27] 24.0205 
*END

*D_NET *27 0.00351224
*CONN
*P sine_out[28] O
*I *619:X O *D sg13g2_buf_2
*CAP
1 sine_out[28] 0.00144143
2 *619:X 0.00144143
3 sine_out[28] sine_out[29] 0
4 sine_out[28] sine_out[30] 0
5 sine_out[28] *428:B1 0
6 sine_out[28] *574:A 0.000274527
7 sine_out[28] *617:A 0.000209899
8 sine_out[28] *32:16 0
9 sine_out[28] *173:16 0
10 sine_out[27] sine_out[28] 0
11 *24:10 sine_out[28] 0
12 *25:10 sine_out[28] 0.000144956
*RES
1 *619:X sine_out[28] 33.1918 
*END

*D_NET *28 0.0048404
*CONN
*P sine_out[29] O
*I *620:X O *D sg13g2_buf_2
*CAP
1 sine_out[29] 0.000551416
2 *620:X 0.000807226
3 *28:8 0.00135864
4 sine_out[29] sine_out[30] 0.000288087
5 sine_out[29] sine_out[32] 0.000235055
6 *28:8 sine_out[31] 0.00118049
7 *28:8 *32:16 0
8 *28:8 *75:29 0.00027467
9 sine_out[28] sine_out[29] 0
10 *26:12 *28:8 0.000144814
*RES
1 *620:X *28:8 48.9713 
2 *28:8 sine_out[29] 26.3797 
*END

*D_NET *29 0.00298838
*CONN
*P sine_out[2] O
*I *621:X O *D sg13g2_buf_2
*CAP
1 sine_out[2] 0.00126879
2 *621:X 0.00126879
3 sine_out[2] sine_out[3] 0
4 sine_out[2] *395:B 0
5 sine_out[2] *621:A 0
6 sine_out[2] *35:8 0.00030627
7 sine_out[2] *209:14 0.000144536
8 sine_out[2] *210:14 0
9 sine_out[1] sine_out[2] 0
*RES
1 *621:X sine_out[2] 32.3188 
*END

*D_NET *30 0.00494324
*CONN
*P sine_out[30] O
*I *622:X O *D sg13g2_buf_2
*CAP
1 sine_out[30] 0.000559824
2 *622:X 0.00104007
3 *30:6 0.0015999
4 sine_out[30] sine_out[31] 0
5 sine_out[30] *32:16 8.0039e-05
6 *30:6 sine_out[31] 0.000501712
7 *30:6 *545:A 0.00027467
8 *30:6 *228:105 0.00059894
9 sine_out[28] sine_out[30] 0
10 sine_out[29] sine_out[30] 0.000288087
*RES
1 *622:X *30:6 30.918 
2 *30:6 sine_out[30] 46.6744 
*END

*D_NET *31 0.00553157
*CONN
*P sine_out[31] O
*I *623:X O *D sg13g2_buf_2
*CAP
1 sine_out[31] 0.00180358
2 *623:X 0.00180358
3 sine_out[31] sine_out[32] 0
4 sine_out[31] *623:A 0
5 sine_out[31] *75:29 0
6 sine_out[31] *204:12 0.000242213
7 sine_out[31] *228:105 0
8 sine_out[30] sine_out[31] 0
9 *28:8 sine_out[31] 0.00118049
10 *30:6 sine_out[31] 0.000501712
*RES
1 *623:X sine_out[31] 38.2928 
*END

*D_NET *32 0.00524513
*CONN
*P sine_out[32] O
*I *624:X O *D sg13g2_buf_2
*CAP
1 sine_out[32] 0.000564142
2 *624:X 0.00144043
3 *32:16 0.00200457
4 *32:16 *618:A 0.000307012
5 *32:16 *619:A 8.01995e-05
6 *32:16 *75:29 0.000533682
7 sine_out[28] *32:16 0
8 sine_out[29] sine_out[32] 0.000235055
9 sine_out[30] *32:16 8.0039e-05
10 sine_out[31] sine_out[32] 0
11 *25:10 *32:16 0
12 *26:12 *32:16 0
13 *28:8 *32:16 0
*RES
1 *624:X *32:16 34.3376 
2 *32:16 sine_out[32] 45.9946 
*END

*D_NET *33 0.00454447
*CONN
*P sine_out[3] O
*I *626:X O *D sg13g2_buf_2
*CAP
1 sine_out[3] 0.00121423
2 *626:X 0.00121423
3 sine_out[3] sine_out[4] 0.000630309
4 sine_out[3] *395:B 0.000339496
5 sine_out[3] *548:A 0
6 sine_out[3] *35:8 0
7 sine_out[3] *36:10 0.000823991
8 sine_out[3] *210:14 0
9 sine_out[3] *211:20 7.99902e-05
10 sine_out[3] *237:6 0.000242213
11 sine_out[2] sine_out[3] 0
*RES
1 *626:X sine_out[3] 34.1934 
*END

*D_NET *34 0.00409019
*CONN
*P sine_out[4] O
*I *627:X O *D sg13g2_buf_2
*CAP
1 sine_out[4] 0.000387108
2 *627:X 0.000664293
3 *34:10 0.0010514
4 sine_out[4] sine_out[5] 0
5 sine_out[4] sine_out[6] 0
6 sine_out[0] *34:10 0.000630233
7 sine_out[1] *34:10 0.00072685
8 sine_out[3] sine_out[4] 0.000630309
*RES
1 *627:X *34:10 47.931 
2 *34:10 sine_out[4] 24.2682 
*END

*D_NET *35 0.00261047
*CONN
*P sine_out[5] O
*I *628:X O *D sg13g2_buf_2
*CAP
1 sine_out[5] 0.00040043
2 *628:X 0.000751668
3 *35:8 0.0011521
4 sine_out[5] sine_out[6] 0
5 *35:8 *36:10 0
6 sine_out[2] *35:8 0.00030627
7 sine_out[3] *35:8 0
8 sine_out[4] sine_out[5] 0
*RES
1 *628:X *35:8 47.6735 
2 *35:8 sine_out[5] 24.6041 
*END

*D_NET *36 0.00293484
*CONN
*P sine_out[6] O
*I *629:X O *D sg13g2_buf_2
*CAP
1 sine_out[6] 0.000362233
2 *629:X 0.000693193
3 *36:10 0.00105543
4 sine_out[6] sine_out[7] 0
5 sine_out[3] *36:10 0.000823991
6 sine_out[4] sine_out[6] 0
7 sine_out[5] sine_out[6] 0
8 *35:8 *36:10 0
*RES
1 *629:X *36:10 48.0855 
2 *36:10 sine_out[6] 23.9449 
*END

*D_NET *37 0.00316278
*CONN
*P sine_out[7] O
*I *630:X O *D sg13g2_buf_2
*CAP
1 sine_out[7] 0.00124739
2 *630:X 0.000270075
3 *37:10 0.00151747
4 sine_out[7] sine_out[8] 0
5 sine_out[7] *548:A 0
6 sine_out[7] *583:A 0
7 sine_out[7] *634:A 0
8 sine_out[7] *39:10 1.53099e-05
9 sine_out[7] *239:104 0.000112533
10 *37:10 *66:12 0
11 *37:10 *158:48 0
12 *37:10 *163:8 0
13 *37:10 *239:104 0
14 sine_out[6] sine_out[7] 0
*RES
1 *630:X *37:10 41.9155 
2 *37:10 sine_out[7] 33.0707 
*END

*D_NET *38 0.00316844
*CONN
*P sine_out[8] O
*I *631:X O *D sg13g2_buf_2
*CAP
1 sine_out[8] 0.00116561
2 *631:X 0.00116561
3 sine_out[8] sine_out[9] 0
4 sine_out[8] *544:B1 0
5 sine_out[8] *546:A2 0
6 sine_out[8] *634:A 0.000271544
7 sine_out[8] *39:10 0
8 sine_out[8] *214:10 0
9 sine_out[8] *238:12 0
10 sine_out[7] sine_out[8] 0
11 *8:8 sine_out[8] 0.000565675
*RES
1 *631:X sine_out[8] 31.9492 
*END

*D_NET *39 0.00245923
*CONN
*P sine_out[9] O
*I *632:X O *D sg13g2_buf_2
*CAP
1 sine_out[9] 0.000528405
2 *632:X 0.000693553
3 *39:10 0.00122196
4 *39:10 *634:A 0
5 sine_out[10] sine_out[9] 0
6 sine_out[11] sine_out[9] 0
7 sine_out[7] *39:10 1.53099e-05
8 sine_out[8] sine_out[9] 0
9 sine_out[8] *39:10 0
10 *8:8 sine_out[9] 0
*RES
1 *632:X *39:10 46.2933 
2 *39:10 sine_out[9] 24.9171 
*END

*D_NET *40 0.00134423
*CONN
*I *565:D I *D sg13g2_dfrbpq_1
*I *483:Y O *D sg13g2_inv_1
*CAP
1 *565:D 0
2 *483:Y 0.000261098
3 *40:8 0.000261098
4 *40:8 *226:60 0.000822039
*RES
1 *483:Y *40:8 43.811 
2 *40:8 *565:D 40 
*END

*D_NET *41 0.000858718
*CONN
*I *597:A I *D sg13g2_dlygate4sd3_1
*I *478:Y O *D sg13g2_xnor2_1
*CAP
1 *597:A 0
2 *478:Y 0.000429359
3 *41:12 0.000429359
4 *41:12 *478:A 0
5 *41:12 *216:10 0
*RES
1 *478:Y *41:12 44.2333 
2 *41:12 *597:A 40 
*END

*D_NET *42 0.00154858
*CONN
*I *600:A I *D sg13g2_dlygate4sd3_1
*I *601:A I *D sg13g2_dlygate4sd3_1
*I *565:Q O *D sg13g2_dfrbpq_1
*CAP
1 *600:A 0.000265921
2 *601:A 0
3 *565:Q 0.000291733
4 *42:12 0.000265921
5 *42:10 0.000291733
6 *600:A *215:109 0.000112454
7 *600:A *249:55 0
8 *42:10 *437:A1 0
9 *42:10 *469:B 8.01995e-05
10 *42:10 *584:A 0.000112458
11 *42:10 *92:10 0
12 *42:10 *236:29 0.00012816
*RES
1 *565:Q *42:10 42.7398 
2 *42:10 *42:12 20 
3 *42:12 *601:A 20 
4 *42:12 *600:A 22.6162 
*END

*D_NET *43 0.000358986
*CONN
*I *598:A I *D sg13g2_dlygate4sd3_1
*I *557:Q O *D sg13g2_dfrbpq_1
*CAP
1 *598:A 0.000179493
2 *557:Q 0.000179493
3 *598:A *457:B1 0
4 *598:A *565:CLK 0
*RES
1 *557:Q *598:A 41.751 
*END

*D_NET *44 0.00134947
*CONN
*I *599:A I *D sg13g2_dlygate4sd3_1
*I *558:Q O *D sg13g2_dfrbpq_1
*CAP
1 *599:A 0.000400534
2 *558:Q 0.000400534
3 *599:A *560:RESET_B 0.000209614
4 *599:A *560:D 0.00033879
5 *599:A *593:A 0
6 *599:A *87:14 0
*RES
1 *558:Q *599:A 44.5114 
*END

*D_NET *45 0.0012388
*CONN
*I *558:D I *D sg13g2_dfrbpq_1
*I *456:Y O *D sg13g2_xnor2_1
*CAP
1 *558:D 0
2 *456:Y 0.000214488
3 *45:10 0.000214488
4 *45:10 *558:CLK 0.00034079
5 *45:10 *595:A 0
6 *45:10 *183:47 7.52149e-05
7 *45:10 *215:109 0
8 *45:10 *249:10 0.000393822
*RES
1 *456:Y *45:10 43.0179 
2 *45:10 *558:D 40 
*END

*D_NET *46 0.00049854
*CONN
*I *590:A I *D sg13g2_buf_8
*I *559:Q O *D sg13g2_dfrbpq_1
*CAP
1 *590:A 0.00024927
2 *559:Q 0.00024927
3 *590:A *249:36 0
*RES
1 *559:Q *590:A 42.8119 
*END

*D_NET *47 0.00297231
*CONN
*I *559:D I *D sg13g2_dfrbpq_1
*I *460:X O *D sg13g2_xor2_1
*CAP
1 *559:D 0.000139568
2 *460:X 0.000900538
3 *47:8 0.00104011
4 *559:D *550:A 1.53099e-05
5 *559:D *56:16 0
6 *47:8 *391:A 0
7 *47:8 *56:39 0
8 *47:8 *65:8 0.000876785
9 *47:8 *196:12 0
10 *47:8 *251:14 0
11 *47:8 *251:75 0
*RES
1 *460:X *47:8 49.4966 
2 *47:8 *559:D 41.1845 
*END

*D_NET *48 0.000567184
*CONN
*I *588:A I *D sg13g2_buf_2
*I *560:Q O *D sg13g2_dfrbpq_1
*CAP
1 *588:A 0.00016291
2 *560:Q 0.00016291
3 *588:A *471:A2 0
4 *588:A *61:12 0.000241364
*RES
1 *560:Q *588:A 41.6171 
*END

*D_NET *49 0.00138526
*CONN
*I *560:D I *D sg13g2_dfrbpq_1
*I *464:X O *D sg13g2_xor2_1
*CAP
1 *560:D 0.000228341
2 *464:X 0.00016718
3 *49:8 0.000395521
4 *560:D *467:B1 0
5 *560:D *467:A2 0
6 *49:8 *88:10 0.000181058
7 *49:8 *227:48 7.43655e-05
8 *599:A *560:D 0.00033879
*RES
1 *464:X *49:8 42.0806 
2 *49:8 *560:D 42.4823 
*END

*D_NET *50 0.00578959
*CONN
*I *584:A I *D sg13g2_buf_2
*I *586:A I *D sg13g2_buf_2
*I *561:Q O *D sg13g2_dfrbpq_1
*CAP
1 *584:A 6.12858e-05
2 *586:A 0
3 *561:Q 0.000163965
4 *50:17 0.00103032
5 *50:6 0.001133
6 *584:A *437:A1 8.03692e-05
7 *50:6 *241:8 0
8 *50:17 *469:B 0.00092921
9 *50:17 *62:8 0
10 *50:17 *89:10 0.000875249
11 *50:17 *185:21 0.000667029
12 *50:17 *227:23 0.000320048
13 *3:9 *50:6 0.000239981
14 *3:9 *50:17 0.000176669
15 *42:10 *584:A 0.000112458
*RES
1 *561:Q *50:6 21.6171 
2 *50:6 *586:A 20 
3 *50:6 *50:17 34.3891 
4 *50:17 *584:A 40.7519 
*END

*D_NET *51 0.000360001
*CONN
*I *561:D I *D sg13g2_dfrbpq_1
*I *468:X O *D sg13g2_xor2_1
*CAP
1 *561:D 0.00018
2 *468:X 0.00018
3 *561:D *94:12 0
4 *561:D *244:29 0
*RES
1 *468:X *561:D 41.5347 
*END

*D_NET *52 0.00275238
*CONN
*I *581:A I *D sg13g2_buf_8
*I *579:A I *D sg13g2_buf_2
*I *562:Q O *D sg13g2_dfrbpq_1
*CAP
1 *581:A 0
2 *579:A 0
3 *562:Q 0.000352634
4 *52:18 0.000498146
5 *52:10 0.00085078
6 *52:10 *563:CLK 0
7 *52:10 *54:10 0.000209756
8 *52:10 *236:12 0
9 *52:18 *54:16 0
10 *52:18 *230:36 0
11 *52:18 *236:12 8.02269e-05
12 *52:18 *236:42 0.000518483
13 *3:9 *52:10 0.000242355
*RES
1 *562:Q *52:10 24.0479 
2 *52:10 *52:18 45.8298 
3 *52:18 *579:A 20 
4 *52:10 *581:A 20 
*END

*D_NET *53 0.00046514
*CONN
*I *562:D I *D sg13g2_dfrbpq_1
*I *472:X O *D sg13g2_xor2_1
*CAP
1 *562:D 0.000208685
2 *472:X 0.000208685
3 *562:D *474:A 0
4 *562:D *475:A 0
5 *562:D *227:23 4.77702e-05
6 *562:D *244:42 0
*RES
1 *472:X *562:D 41.3929 
*END

*D_NET *54 0.00173824
*CONN
*I *577:A I *D sg13g2_buf_8
*I *576:A I *D sg13g2_buf_2
*I *563:Q O *D sg13g2_dfrbpq_1
*CAP
1 *577:A 0
2 *576:A 0
3 *563:Q 0.000438918
4 *54:16 0.000234018
5 *54:10 0.000672936
6 *54:10 *236:12 0
7 *54:10 *236:42 0
8 *54:16 *444:A 0
9 *54:16 *231:8 0.00018261
10 *54:16 *234:14 0
11 *3:9 *54:10 0
12 *52:10 *54:10 0.000209756
13 *52:18 *54:16 0
*RES
1 *563:Q *54:10 24.2642 
2 *54:10 *54:16 43.0694 
3 *54:16 *576:A 20 
4 *54:10 *577:A 20 
*END

*D_NET *55 0.00044545
*CONN
*I *563:D I *D sg13g2_dfrbpq_1
*I *475:Y O *D sg13g2_xnor2_1
*CAP
1 *563:D 0.000134075
2 *475:Y 0.000134075
3 *563:D *475:A 0.0001773
4 *563:D *475:B 0
*RES
1 *475:Y *563:D 41.5347 
*END

*D_NET *56 0.0127633
*CONN
*I *557:D I *D sg13g2_dfrbpq_1
*I *457:A1 I *D sg13g2_o21ai_1
*I *402:A I *D sg13g2_nor2_1
*I *427:A1 I *D sg13g2_o21ai_1
*I *398:A I *D sg13g2_nor2_1
*I *392:Y O *D sg13g2_inv_2
*CAP
1 *557:D 0.000482139
2 *457:A1 0
3 *402:A 6.34535e-05
4 *427:A1 0.000326064
5 *398:A 0.000291346
6 *392:Y 0.000136026
7 *56:45 0.000389517
8 *56:43 0.00134765
9 *56:39 0.00198835
10 *56:26 0.00102098
11 *56:16 0.0015797
12 *56:10 0.000827535
13 *398:A *398:B 0
14 *398:A *479:C 0
15 *398:A *207:26 0
16 *398:A *231:84 0
17 *427:A1 *427:A2 4.75525e-05
18 *427:A1 *488:A 4.77425e-05
19 *427:A1 *510:B 0.000287316
20 *427:A1 *147:8 0.000235006
21 *427:A1 *148:14 0.000543478
22 *427:A1 *225:10 0.000180885
23 *427:A1 *225:23 0.000401555
24 *427:A1 *225:25 0.000124547
25 *557:D *391:A 0.000286279
26 *557:D *478:A 0
27 *557:D *550:A 0
28 *557:D *559:CLK 0
29 *557:D *564:D 0
30 *557:D *215:28 0
31 *557:D *251:14 0
32 *56:10 *391:A 0.000228663
33 *56:10 *550:A 4.77425e-05
34 *56:10 *251:14 4.76977e-05
35 *56:16 *550:A 0
36 *56:16 *559:CLK 0
37 *56:26 *391:A 0
38 *56:26 *59:8 0.000228663
39 *56:26 *251:22 0.000273141
40 *56:26 *251:33 0
41 *56:39 *482:B1 0
42 *56:39 *59:8 0.0001261
43 *56:43 *116:22 0.000699412
44 *56:43 *164:30 0
45 *56:43 *218:12 0.000504775
46 *559:D *56:16 0
47 *47:8 *56:39 0
*RES
1 *392:Y *56:10 41.4111 
2 *56:10 *56:16 41.8334 
3 *56:16 *56:26 48.0031 
4 *56:26 *398:A 43.1312 
5 *56:16 *56:39 7.0967 
6 *56:39 *56:43 35.4603 
7 *56:43 *56:45 20 
8 *56:45 *427:A1 45.6135 
9 *56:45 *402:A 40.6695 
10 *56:39 *457:A1 40 
11 *56:10 *557:D 44.9028 
*END

*D_NET *57 0.000354574
*CONN
*I *557:RESET_B I *D sg13g2_dfrbpq_1
*I *393:Y O *D sg13g2_inv_1
*CAP
1 *557:RESET_B 0.000169559
2 *393:Y 0.000169559
3 *557:RESET_B *183:20 1.54556e-05
4 *557:RESET_B *215:28 0
*RES
1 *393:Y *557:RESET_B 41.6171 
*END

*D_NET *58 0.000749436
*CONN
*I *558:RESET_B I *D sg13g2_dfrbpq_1
*I *549:Y O *D sg13g2_inv_1
*CAP
1 *558:RESET_B 0.000121608
2 *549:Y 0.000164773
3 *58:10 0.000286381
4 *558:RESET_B *595:A 0.000176674
5 *558:RESET_B *251:8 0
6 *58:10 *558:CLK 0
7 *58:10 *595:A 0
8 *58:10 *215:22 0
9 *58:10 *215:109 0
*RES
1 *549:Y *58:10 41.6274 
2 *58:10 *558:RESET_B 41.1845 
*END

*D_NET *59 0.000620589
*CONN
*I *559:RESET_B I *D sg13g2_dfrbpq_1
*I *550:Y O *D sg13g2_inv_1
*CAP
1 *559:RESET_B 0
2 *550:Y 0.000132913
3 *59:8 0.000132913
4 *59:8 *482:B1 0
5 *56:26 *59:8 0.000228663
6 *56:39 *59:8 0.0001261
*RES
1 *550:Y *59:8 41.5862 
2 *59:8 *559:RESET_B 40 
*END

*D_NET *60 0.00112418
*CONN
*I *560:RESET_B I *D sg13g2_dfrbpq_1
*I *551:Y O *D sg13g2_inv_1
*CAP
1 *560:RESET_B 0.000433398
2 *551:Y 0.000433398
3 *560:RESET_B *593:A 0
4 *560:RESET_B *215:109 0