*SPEF "ieee 1481-1999"
*DESIGN "DigitalSine"
*DATE "17:48:36 Monday December 15, 2025"
*VENDOR "The OpenROAD Project"
*PROGRAM "OpenROAD"
*VERSION "341650e72dad0dc8571822ff8c5d9c5e365327f7"
*DESIGN_FLOW "NAME_SCOPE LOCAL" "PIN_CAP NONE"
*DIVIDER /
*DELIMITER :
*BUS_DELIMITER []
*T_UNIT 1 NS
*C_UNIT 1 PF
*R_UNIT 1 OHM
*L_UNIT 1 HENRY

*NAME_MAP
*3 clk
*4 rst
*5 sign
*6 signB
*7 sine_out[0]
*8 sine_out[10]
*9 sine_out[11]
*10 sine_out[12]
*11 sine_out[13]
*12 sine_out[14]
*13 sine_out[15]
*14 sine_out[16]
*15 sine_out[17]
*16 sine_out[18]
*17 sine_out[19]
*18 sine_out[1]
*19 sine_out[20]
*20 sine_out[21]
*21 sine_out[22]
*22 sine_out[23]
*23 sine_out[24]
*24 sine_out[25]
*25 sine_out[26]
*26 sine_out[27]
*27 sine_out[28]
*28 sine_out[29]
*29 sine_out[2]
*30 sine_out[30]
*31 sine_out[31]
*32 sine_out[32]
*33 sine_out[3]
*34 sine_out[4]
*35 sine_out[5]
*36 sine_out[6]
*37 sine_out[7]
*38 sine_out[8]
*39 sine_out[9]
*40 CTRL\.P0
*41 CTRL\.P1
*42 CTRL\.S0
*43 DPATH\.SUM\.Cout0
*44 DPATH\.SUM\.fa_1\.A
*45 DPATH\.SUM\.fa_1\.S
*46 DPATH\.SUM\.fa_2\.A
*47 DPATH\.SUM\.fa_2\.S
*48 DPATH\.SUM\.fa_3\.A
*49 DPATH\.SUM\.fa_3\.S
*50 DPATH\.SUM\.fa_4\.A
*51 DPATH\.SUM\.fa_4\.S
*52 DPATH\.SUM\.fa_5\.A
*53 DPATH\.SUM\.fa_5\.S
*54 DPATH\.SUM\.fa_6\.A
*55 DPATH\.SUM\.fa_6\.S
*56 DPATH\.SUM\.ha_0\.S
*57 _000_
*58 _001_
*59 _002_
*60 _003_
*61 _004_
*62 _005_
*63 _006_
*64 _007_
*65 _008_
*66 _009_
*67 _010_
*68 _011_
*69 _012_
*70 _013_
*71 _014_
*72 _015_
*73 _016_
*74 _017_
*75 _018_
*76 _019_
*77 _020_
*78 _021_
*79 _022_
*80 _023_
*81 _024_
*82 _025_
*83 _026_
*84 _027_
*85 _028_
*86 _029_
*87 _030_
*88 _031_
*89 _032_
*90 _033_
*91 _034_
*92 _035_
*93 _036_
*94 _037_
*95 _038_
*96 _039_
*97 _040_
*98 _041_
*99 _042_
*100 _043_
*101 _044_
*102 _045_
*103 _046_
*104 _047_
*105 _048_
*106 _049_
*107 _050_
*108 _051_
*109 _052_
*110 _053_
*111 _054_
*112 _055_
*113 _056_
*114 _057_
*115 _058_
*116 _059_
*117 _060_
*118 _061_
*119 _062_
*120 _063_
*121 _064_
*122 _065_
*123 _066_
*124 _067_
*125 _068_
*126 _069_
*127 _070_
*128 _071_
*129 _072_
*130 _073_
*131 _074_
*132 _075_
*133 _076_
*134 _077_
*135 _078_
*136 _079_
*137 _080_
*138 _081_
*139 _082_
*140 _083_
*141 _084_
*142 _085_
*143 _086_
*144 _087_
*145 _088_
*146 _089_
*147 _090_
*148 _091_
*149 _092_
*150 _093_
*151 _094_
*152 _095_
*153 _096_
*154 _097_
*155 _098_
*156 _099_
*157 _100_
*158 _101_
*159 _102_
*160 _103_
*161 _104_
*162 _105_
*163 _106_
*164 _107_
*165 _108_
*166 _109_
*167 _110_
*168 _111_
*169 _112_
*170 _113_
*171 _114_
*172 _115_
*173 _116_
*174 _117_
*175 _118_
*176 _119_
*177 _120_
*178 _121_
*179 _122_
*180 _123_
*181 _124_
*182 clknet_0_clk
*183 clknet_1_0__leaf_clk
*184 clknet_1_1__leaf_clk
*185 net1
*186 net10
*187 net11
*188 net12
*189 net13
*190 net14
*191 net15
*192 net16
*193 net17
*194 net18
*195 net19
*196 net2
*197 net20
*198 net21
*199 net22
*200 net23
*201 net24
*202 net25
*203 net26
*204 net27
*205 net28
*206 net29
*207 net3
*208 net30
*209 net31
*210 net32
*211 net33
*212 net34
*213 net35
*214 net36
*215 net37
*216 net38
*217 net39
*218 net4
*219 net5
*220 net50
*221 net51
*222 net52
*223 net53
*224 net54
*225 net55
*226 net56
*227 net57
*228 net58
*229 net59
*230 net6
*231 net60
*232 net61
*233 net62
*234 net63
*235 net64
*236 net65
*237 net66
*238 net67
*239 net68
*240 net69
*241 net7
*242 net70
*243 net71
*244 net72
*245 net73
*246 net74
*247 net75
*248 net8
*249 net9
*250 FILLER_0_0
*251 FILLER_0_100
*252 FILLER_0_107
*253 FILLER_0_114
*254 FILLER_0_118
*255 FILLER_0_14
*256 FILLER_0_21
*257 FILLER_0_7
*258 FILLER_0_86
*259 FILLER_0_93
*260 FILLER_10_116
*261 FILLER_10_118
*262 FILLER_10_5
*263 FILLER_10_56
*264 FILLER_10_58
*265 FILLER_10_93
*266 FILLER_10_99
*267 FILLER_11_104
*268 FILLER_11_116
*269 FILLER_11_118
*270 FILLER_11_27
*271 FILLER_11_29
*272 FILLER_11_44
*273 FILLER_11_54
*274 FILLER_11_64
*275 FILLER_11_82
*276 FILLER_11_96
*277 FILLER_11_98
*278 FILLER_12_69
*279 FILLER_13_0
*280 FILLER_13_116
*281 FILLER_13_118
*282 FILLER_13_17
*283 FILLER_13_29
*284 FILLER_13_36
*285 FILLER_13_42
*286 FILLER_13_85
*287 FILLER_14_0
*288 FILLER_14_116
*289 FILLER_14_118
*290 FILLER_1_0
*291 FILLER_1_101
*292 FILLER_1_108
*293 FILLER_1_4
*294 FILLER_1_94
*295 FILLER_2_105
*296 FILLER_2_12
*297 FILLER_2_14
*298 FILLER_2_37
*299 FILLER_2_5
*300 FILLER_3_0
*301 FILLER_3_118
*302 FILLER_3_14
*303 FILLER_3_21
*304 FILLER_3_7
*305 FILLER_3_82
*306 FILLER_4_0
*307 FILLER_4_11
*308 FILLER_4_57
*309 FILLER_4_7
*310 FILLER_4_72
*311 FILLER_4_74
*312 FILLER_5_0
*313 FILLER_5_39
*314 FILLER_5_7
*315 FILLER_5_90
*316 FILLER_6_0
*317 FILLER_6_27
*318 FILLER_6_37
*319 FILLER_6_4
*320 FILLER_6_62
*321 FILLER_6_69
*322 FILLER_7_0
*323 FILLER_7_118
*324 FILLER_7_22
*325 FILLER_7_39
*326 FILLER_7_96
*327 FILLER_8_117
*328 FILLER_8_13
*329 FILLER_8_5
*330 FILLER_8_51
*331 FILLER_8_65
*332 FILLER_8_67
*333 FILLER_8_7
*334 FILLER_8_83
*335 FILLER_8_93
*336 FILLER_8_99
*337 FILLER_9_61
*338 FILLER_9_86
*339 _125_
*340 _126_
*341 _127_
*342 _128_
*343 _129_
*344 _130_
*345 _131_
*346 _132_
*347 _133_
*348 _134_
*349 _135_
*350 _136_
*351 _137_
*352 _138_
*353 _139_
*354 _140_
*355 _141_
*356 _142_
*357 _143_
*358 _144_
*359 _145_
*360 _146_
*361 _147_
*362 _148_
*363 _149_
*364 _150_
*365 _151_
*366 _152_
*367 _153_
*368 _154_
*369 _155_
*370 _156_
*371 _157_
*372 _158_
*373 _159_
*374 _160_
*375 _161_
*376 _162_
*377 _163_
*378 _164_
*379 _165_
*380 _166_
*381 _167_
*382 _168_
*383 _169_
*384 _170_
*385 _171_
*386 _172_
*387 _173_
*388 _174_
*389 _175_
*390 _176_
*391 _177_
*392 _178_
*393 _179_
*394 _180_
*395 _181_
*396 _182_
*397 _183_
*398 _184_
*399 _185_
*400 _186_
*401 _187_
*402 _188_
*403 _189_
*404 _190_
*405 _191_
*406 _192_
*407 _193_
*408 _194_
*409 _195_
*410 _196_
*411 _197_
*412 _198_
*413 _199_
*414 _200_
*415 _201_
*416 _202_
*417 _203_
*418 _204_
*419 _205_
*420 _206_
*421 _207_
*422 _208_
*423 _209_
*424 _210_
*425 _211_
*426 _212_
*427 _213_
*428 _214_
*429 _215_
*430 _216_
*431 _217_
*432 _218_
*433 _219_
*434 _220_
*435 _221_
*436 _222_
*437 _223_
*438 _224_
*439 _225_
*440 _226_
*441 _227_
*442 _228_
*443 _229_
*444 _230_
*445 _231_
*446 _232_
*447 _233_
*448 _234_
*449 _235_
*450 _236_
*451 _237_
*452 _238_
*453 _239_
*454 _240_
*455 _241_
*456 _242_
*457 _243_
*458 _244_
*459 _245_
*460 _246_
*461 _247_
*462 _248_
*463 _249_
*464 _250_
*465 _251_
*466 _252_
*467 _253_
*468 _254_
*469 _255_
*470 _256_
*471 _257_
*472 _258_
*473 _259_
*474 _260_
*475 _261_
*476 _262_
*477 _263_
*478 _264_
*479 _265_
*480 _266_
*481 _267_
*482 _268_
*483 _269_
*484 _270_
*485 _271_
*486 _272_
*487 _273_
*488 _274_
*489 _275_
*490 _276_
*491 _277_
*492 _278_
*493 _279_
*494 _280_
*495 _281_
*496 _282_
*497 _283_
*498 _284_
*499 _285_
*500 _286_
*501 _287_
*502 _288_
*503 _289_
*504 _290_
*505 _291_
*506 _292_
*507 _293_
*508 _294_
*509 _295_
*510 _296_
*511 _297_
*512 _298_
*513 _299_
*514 _300_
*515 _301_
*516 clkbuf_0_clk
*517 clkbuf_1_0__f_clk
*518 clkbuf_1_1__f_clk
*519 clkload0
*520 fanout37
*521 fanout50
*522 fanout51
*523 fanout52
*524 fanout53
*525 fanout54
*526 fanout55
*527 fanout56
*528 fanout57
*529 fanout58
*530 fanout59
*531 fanout60
*532 fanout61
*533 fanout62
*534 fanout63
*535 fanout64
*536 fanout65
*537 fanout66
*538 fanout67
*539 fanout68
*540 fanout69
*541 fanout70
*542 fanout71
*543 fanout72
*544 fanout73
*545 fanout74
*546 fanout75
*547 hold1
*548 hold2
*549 input1
*550 output10
*551 output11
*552 output12
*553 output13
*554 output14
*555 output15
*556 output16
*557 output17
*558 output18
*559 output19
*560 output2
*561 output20
*562 output21
*563 output22
*564 output23
*565 output24
*566 output25
*567 output26
*568 output27
*569 output28
*570 output29
*571 output3
*572 output30
*573 output31
*574 output32
*575 output33
*576 output34
*577 output35
*578 output36
*579 output4
*580 output5
*581 output6
*582 output7
*583 output8
*584 output9

*PORTS
clk I
rst I
sign O
signB O
sine_out[0] O
sine_out[10] O
sine_out[11] O
sine_out[12] O
sine_out[13] O
sine_out[14] O
sine_out[15] O
sine_out[16] O
sine_out[17] O
sine_out[18] O
sine_out[19] O
sine_out[1] O
sine_out[20] O
sine_out[21] O
sine_out[22] O
sine_out[23] O
sine_out[24] O
sine_out[25] O
sine_out[26] O
sine_out[27] O
sine_out[28] O
sine_out[29] O
sine_out[2] O
sine_out[30] O
sine_out[31] O
sine_out[32] O
sine_out[3] O
sine_out[4] O
sine_out[5] O
sine_out[6] O
sine_out[7] O
sine_out[8] O
sine_out[9] O

*D_NET *3 0.0107779
*CONN
*P clk I
*I *516:A I *D sg13g2_buf_8
*CAP
1 clk 0.00184551
2 *516:A 0.00145887
3 *3:13 0.00145887
4 *3:9 0.00184551
5 *516:A *351:C 0
6 *516:A *356:A 0.000207845
7 *516:A *372:A 0
8 *516:A *416:A 0
9 *516:A *420:A 0
10 *516:A *420:B 0
11 *516:A *485:C 0.000272834
12 *516:A *486:A1 0
13 *516:A *90:8 0
14 *516:A *153:14 0
15 *516:A *179:18 0
16 *516:A *217:10 0.000240684
17 *516:A *239:27 0
18 *516:A *239:34 0.000532866
19 *516:A *239:51 4.77425e-05
20 *516:A *243:32 0.000143351
21 *3:9 *400:A1 0
22 *3:9 *400:A2 0.000209643
23 *3:9 *26:10 0
24 *3:9 *27:16 0
25 *3:9 *76:40 0
26 *3:9 *79:52 0.000761474
27 *3:9 *164:69 0.00012559
28 *3:9 *174:20 0
29 *3:9 *174:31 0
30 *3:9 *189:10 0
31 *3:9 *193:12 0.000179357
32 *3:9 *225:62 0.000275482
33 *3:9 *235:99 4.77832e-05
34 *3:9 *235:122 0.000130451
35 *3:9 *236:69 7.33225e-05
36 *3:9 *236:75 0.000920717
*RES
1 clk *3:9 39.7425 
2 *3:9 *3:13 40 
3 *3:13 *516:A 34.3891 
*END

*D_NET *4 0.000684344
*CONN
*P rst I
*I *549:A I *D sg13g2_buf_1
*CAP
1 rst 0.000342172
2 *549:A 0.000342172
*RES
1 rst *549:A 43.9217 
*END

*D_NET *5 0.00091755
*CONN
*P sign O
*I *560:X O *D sg13g2_buf_2
*CAP
1 sign 0.000458775
2 *560:X 0.000458775
3 sign *560:A 0
*RES
1 *560:X sign 45.0264 
*END

*D_NET *6 0.00241499
*CONN
*P signB O
*I *571:X O *D sg13g2_buf_2
*CAP
1 signB 0.000869176
2 *571:X 0.000869176
3 signB sine_out[1] 0
4 signB *491:B 0.000177386
5 signB *573:A 0.000144842
6 signB *163:45 0
7 signB *232:47 0.000144887
8 signB *232:62 0.000209526
*RES
1 *571:X signB 48.9198 
*END

*D_NET *7 0.00380904
*CONN
*P sine_out[0] O
*I *579:X O *D sg13g2_buf_2
*CAP
1 sine_out[0] 0.00174989
2 *579:X 0.000154629
3 *7:8 0.00190452
4 sine_out[0] sine_out[1] 0
5 sine_out[0] *163:45 0
6 sine_out[0] *163:55 0
7 sine_out[0] *207:12 0
8 *7:8 *163:55 0
*RES
1 *579:X *7:8 41.8334 
2 *7:8 sine_out[0] 40.9373 
*END

*D_NET *8 0.00378375
*CONN
*P sine_out[10] O
*I *580:X O *D sg13g2_buf_2
*CAP
1 sine_out[10] 0.000931291
2 *580:X 0.000113849
3 *8:8 0.00104514
4 sine_out[10] sine_out[11] 0.0013537
5 sine_out[10] *39:8 0
6 *8:8 *175:14 0
7 *8:8 *230:12 0
8 *8:8 *248:22 0.000339771
*RES
1 *580:X *8:8 41.5862 
2 *8:8 sine_out[10] 29.2571 
*END

*D_NET *9 0.00356737
*CONN
*P sine_out[11] O
*I *581:X O *D sg13g2_buf_2
*CAP
1 sine_out[11] 0.000994437
2 *581:X 0.000994437
3 sine_out[11] sine_out[12] 0
4 sine_out[11] *10:10 0
5 sine_out[11] *39:8 8.02267e-05
6 sine_out[11] *241:26 0.000144568
7 sine_out[10] sine_out[11] 0.0013537
*RES
1 *581:X sine_out[11] 32.4244 
*END

*D_NET *10 0.00282848
*CONN
*P sine_out[12] O
*I *582:X O *D sg13g2_buf_2
*CAP
1 sine_out[12] 0.000514772
2 *582:X 0.000466849
3 *10:10 0.000981622
4 sine_out[12] sine_out[13] 0
5 sine_out[12] sine_out[14] 0
6 sine_out[12] *11:10 0.000865232
7 *10:10 *11:10 0
8 *10:10 *241:26 0
9 sine_out[11] sine_out[12] 0
10 sine_out[11] *10:10 0
*RES
1 *582:X *10:10 44.223 
2 *10:10 sine_out[12] 26.2289 
*END

*D_NET *11 0.00269151
*CONN
*P sine_out[13] O
*I *583:X O *D sg13g2_buf_2
*CAP
1 sine_out[13] 3.95302e-05
2 *583:X 0.000873611
3 *11:10 0.000913141
4 sine_out[13] sine_out[14] 0
5 *11:10 sine_out[14] 0
6 sine_out[12] sine_out[13] 0
7 sine_out[12] *11:10 0.000865232
8 *10:10 *11:10 0
*RES
1 *583:X *11:10 49.8159 
2 *11:10 sine_out[13] 20.4918 
*END

*D_NET *12 0.00178166
*CONN
*P sine_out[14] O
*I *584:X O *D sg13g2_buf_2
*CAP
1 sine_out[14] 0.000890828
2 *584:X 0.000890828
3 sine_out[14] sine_out[15] 0
4 sine_out[14] *361:A 0
5 sine_out[14] *361:B 0
6 sine_out[12] sine_out[14] 0
7 sine_out[13] sine_out[14] 0
8 *11:10 sine_out[14] 0
*RES
1 *584:X sine_out[14] 29.7071 
*END

*D_NET *13 0.00173753
*CONN
*P sine_out[15] O
*I *550:X O *D sg13g2_buf_2
*CAP
1 sine_out[15] 0.000868764
2 *550:X 0.000868764
3 sine_out[15] sine_out[16] 0
4 sine_out[15] *361:B 0
5 sine_out[15] *171:44 0
6 sine_out[14] sine_out[15] 0
*RES
1 *550:X sine_out[15] 29.6073 
*END

*D_NET *14 0.00173828
*CONN
*P sine_out[16] O
*I *551:X O *D sg13g2_buf_2
*CAP
1 sine_out[16] 0.000861412
2 *551:X 0.000861412
3 sine_out[16] sine_out[17] 0
4 sine_out[16] *551:A 1.54556e-05
5 sine_out[15] sine_out[16] 0
*RES
1 *551:X sine_out[16] 29.6073 
*END

*D_NET *15 0.00167302
*CONN
*P sine_out[17] O
*I *552:X O *D sg13g2_buf_2
*CAP
1 sine_out[17] 0.000836508
2 *552:X 0.000836508
3 sine_out[17] sine_out[18] 0
4 sine_out[17] *551:A 0
5 sine_out[17] *195:10 0
6 sine_out[16] sine_out[17] 0
*RES
1 *552:X sine_out[17] 29.2571 
*END

*D_NET *16 0.00175056
*CONN
*P sine_out[18] O
*I *553:X O *D sg13g2_buf_2
*CAP
1 sine_out[18] 0.000835239
2 *553:X 0.000835239
3 sine_out[18] sine_out[19] 0
4 sine_out[18] sine_out[20] 0
5 sine_out[18] *381:B 0
6 sine_out[18] *17:10 0
7 sine_out[18] *195:10 8.00842e-05
8 sine_out[17] sine_out[18] 0
*RES
1 *553:X sine_out[18] 22.4001 
*END

*D_NET *17 0.00188777
*CONN
*P sine_out[19] O
*I *554:X O *D sg13g2_buf_2
*CAP
1 sine_out[19] 3.95302e-05
2 *554:X 0.000896654
3 *17:10 0.000936185
4 sine_out[19] sine_out[20] 0
5 *17:10 sine_out[20] 0
6 *17:10 *188:10 1.54008e-05
7 sine_out[18] sine_out[19] 0
8 sine_out[18] *17:10 0
*RES
1 *554:X *17:10 49.8159 
2 *17:10 sine_out[19] 20.4918 
*END

*D_NET *18 0.00531056
*CONN
*P sine_out[1] O
*I *555:X O *D sg13g2_buf_2
*CAP
1 sine_out[1] 0.00128269
2 *555:X 0.000489051
3 *18:12 0.00177174
4 sine_out[1] sine_out[2] 0
5 sine_out[1] *573:A 0
6 sine_out[1] *34:10 0
7 sine_out[1] *36:10 0
8 sine_out[1] *163:45 0.000242511
9 *18:12 *426:B 0.00018091
10 *18:12 *163:16 0.000193852
11 *18:12 *170:8 0.000758284
12 *18:12 *227:10 0
13 *18:12 *233:41 0.000391517
14 signB sine_out[1] 0
15 sine_out[0] sine_out[1] 0
*RES
1 *555:X *18:12 46.7053 
2 *18:12 sine_out[1] 34.6646 
*END

*D_NET *19 0.00222676
*CONN
*P sine_out[20] O
*I *556:X O *D sg13g2_buf_2
*CAP
1 sine_out[20] 0.00111338
2 *556:X 0.00111338
3 sine_out[20] sine_out[21] 0
4 sine_out[18] sine_out[20] 0
5 sine_out[19] sine_out[20] 0
6 *17:10 sine_out[20] 0
*RES
1 *556:X sine_out[20] 30.7558 
*END

*D_NET *20 0.0023734
*CONN
*P sine_out[21] O
*I *557:X O *D sg13g2_buf_2
*CAP
1 sine_out[21] 0.000965276
2 *557:X 9.65228e-05
3 *20:8 0.0010618
4 sine_out[21] sine_out[22] 0
5 sine_out[21] *556:A 1.54008e-05
6 sine_out[21] *21:10 0
7 sine_out[21] *25:12 0
8 sine_out[21] *197:12 0
9 *20:8 *195:10 0
10 *20:8 *213:32 0.000234398
11 sine_out[20] sine_out[21] 0
*RES
1 *557:X *20:8 41.0918 
2 *20:8 sine_out[21] 29.2571 
*END

*D_NET *21 0.00232957
*CONN
*P sine_out[22] O
*I *558:X O *D sg13g2_buf_2
*CAP
1 sine_out[22] 0.000403957
2 *558:X 0.00054317
3 *21:10 0.000947128
4 sine_out[22] sine_out[23] 0
5 sine_out[22] sine_out[24] 0
6 *21:10 sine_out[24] 0
7 *21:10 *558:A 0
8 *21:10 *559:A 0
9 *21:10 *22:8 0
10 *21:10 *25:12 0.00043531
11 sine_out[21] sine_out[22] 0
12 sine_out[21] *21:10 0
*RES
1 *558:X *21:10 45.9843 
2 *21:10 sine_out[22] 24.7148 
*END

*D_NET *22 0.00316619
*CONN
*P sine_out[23] O
*I *559:X O *D sg13g2_buf_2
*CAP
1 sine_out[23] 0.000193305
2 *559:X 0.000833753
3 *22:8 0.00102706
4 sine_out[23] sine_out[24] 0
5 *22:8 sine_out[24] 0
6 *22:8 sine_out[25] 0.00111207
7 *22:8 *559:A 0
8 *22:8 *561:A 0
9 *22:8 *23:10 0
10 sine_out[22] sine_out[23] 0
11 *21:10 *22:8 0
*RES
1 *559:X *22:8 48.9713 
2 *22:8 sine_out[23] 22.3252 
*END

*D_NET *23 0.00257251
*CONN
*P sine_out[24] O
*I *561:X O *D sg13g2_buf_2
*CAP
1 sine_out[24] 0.00058043
2 *561:X 0.000476911
3 *23:10 0.00105734
4 sine_out[24] sine_out[25] 0
5 *23:10 sine_out[25] 0
6 *23:10 sine_out[26] 4.77425e-05
7 *23:10 sine_out[28] 0
8 *23:10 *561:A 0
9 *23:10 *25:12 0.000394652
10 *23:10 *193:20 0
11 *23:10 *224:26 1.54285e-05
12 sine_out[22] sine_out[24] 0
13 sine_out[23] sine_out[24] 0
14 *21:10 sine_out[24] 0
15 *22:8 sine_out[24] 0
16 *22:8 *23:10 0
*RES
1 *561:X *23:10 44.103 
2 *23:10 sine_out[24] 26.0815 
*END

*D_NET *24 0.0037726
*CONN
*P sine_out[25] O
*I *562:X O *D sg13g2_buf_2
*CAP
1 sine_out[25] 0.000662703
2 *562:X 0.000546468
3 *24:10 0.00120917
4 sine_out[25] sine_out[26] 0
5 *24:10 sine_out[28] 0.000242186
6 *24:10 sine_out[29] 0
7 *24:10 *562:A 0
8 *24:10 *25:12 0
9 *24:10 *224:14 0
10 sine_out[24] sine_out[25] 0
11 *22:8 sine_out[25] 0.00111207
12 *23:10 sine_out[25] 0
*RES
1 *562:X *24:10 45.1809 
2 *24:10 sine_out[25] 27.4988 
*END

*D_NET *25 0.00385347
*CONN
*P sine_out[26] O
*I *563:X O *D sg13g2_buf_2
*CAP
1 sine_out[26] 0.000613748
2 *563:X 0.000657236
3 *25:12 0.00127098
4 sine_out[26] sine_out[27] 0
5 *25:12 *562:A 0
6 *25:12 *198:10 0.000433798
7 *25:12 *213:22 0
8 sine_out[21] *25:12 0
9 sine_out[25] sine_out[26] 0
10 *21:10 *25:12 0.00043531
11 *23:10 sine_out[26] 4.77425e-05
12 *23:10 *25:12 0.000394652
13 *24:10 *25:12 0
*RES
1 *563:X *25:12 47.8177 
2 *25:12 sine_out[26] 26.8984 
*END

*D_NET *26 0.0036778
*CONN
*P sine_out[27] O
*I *564:X O *D sg13g2_buf_2
*CAP
1 sine_out[27] 0.000556004
2 *564:X 0.000365711
3 *26:16 0.00112211
4 *26:10 0.000931818
5 sine_out[27] sine_out[28] 0
6 *26:10 sine_out[30] 7.98484e-05
7 *26:10 *566:A 7.98484e-05
8 *26:10 *27:16 0
9 *26:10 *66:71 0.000286479
10 *26:10 *76:10 2.19989e-05
11 *26:10 *204:10 0
12 *26:10 *229:42 0.000233984
13 *26:10 *236:75 0
14 *26:16 *181:41 0
15 *26:16 *236:65 0
16 sine_out[26] sine_out[27] 0
17 *3:9 *26:10 0
*RES
1 *564:X *26:10 44.0994 
2 *26:10 *26:16 46.592 
3 *26:16 sine_out[27] 21.3735 
*END

*D_NET *27 0.0043821
*CONN
*P sine_out[28] O
*I *565:X O *D sg13g2_buf_2
*CAP
1 sine_out[28] 0.00114431
2 *565:X 0.00010953
3 *27:16 0.00151954
4 *27:8 0.000484761
5 sine_out[28] sine_out[29] 0
6 sine_out[28] *364:B 0.000144542
7 sine_out[28] *378:A1 0.000208736
8 sine_out[28] *562:A 0.000144886
9 sine_out[28] *192:12 0
10 *27:8 sine_out[29] 0.000144868
11 *27:8 *564:A 0.000112386
12 *27:8 *566:A 0
13 *27:16 *31:18 0
14 *27:16 *229:42 0
15 *27:16 *236:65 0
16 *27:16 *236:69 5.15366e-05
17 *27:16 *236:75 7.48178e-05
18 sine_out[27] sine_out[28] 0
19 *3:9 *27:16 0
20 *23:10 sine_out[28] 0
21 *24:10 sine_out[28] 0.000242186
22 *26:10 *27:16 0
*RES
1 *565:X *27:8 41.1845 
2 *27:8 *27:16 43.4196 
3 *27:16 sine_out[28] 27.2004 
*END

*D_NET *28 0.00455325
*CONN
*P sine_out[29] O
*I *566:X O *D sg13g2_buf_2
*CAP
1 sine_out[29] 0.00170561
2 *566:X 0.00170561
3 sine_out[29] sine_out[30] 0
4 sine_out[29] *398:A2 4.77425e-05
5 sine_out[29] *525:A 0.000209526
6 sine_out[29] *564:A 0
7 sine_out[29] *565:A 0.000339353
8 sine_out[29] *566:A 0
9 sine_out[29] *66:71 4.77425e-05
10 sine_out[29] *78:12 0
11 sine_out[29] *229:42 0.00030506
12 sine_out[29] *236:52 4.77282e-05
13 sine_out[29] *236:65 0
14 sine_out[28] sine_out[29] 0
15 *24:10 sine_out[29] 0
16 *27:8 sine_out[29] 0.000144868
*RES
1 *566:X sine_out[29] 31.6077 
*END

*D_NET *29 0.00562166
*CONN
*P sine_out[2] O
*I *567:X O *D sg13g2_buf_2
*CAP
1 sine_out[2] 0.000825681
2 *567:X 0.00038556
3 *29:18 0.00142097
4 *29:10 0.00098085
5 sine_out[2] sine_out[3] 0
6 sine_out[2] *34:10 0
7 sine_out[2] *36:10 0.000209756
8 *29:10 *353:A2 0.000435224
9 *29:10 *496:A1 0
10 *29:10 *158:54 0
11 *29:10 *158:67 0
12 *29:10 *235:85 0.000274182
13 *29:18 *496:A1 0.000305692
14 *29:18 *496:A2 8.01116e-05
15 *29:18 *36:10 0
16 *29:18 *163:16 0.000241866
17 *29:18 *211:10 0
18 *29:18 *212:18 0.000338898
19 *29:18 *213:32 0.000122871
20 *29:18 *241:18 0
21 sine_out[1] sine_out[2] 0
*RES
1 *567:X *29:10 43.7595 
2 *29:10 *29:18 46.695 
3 *29:18 sine_out[2] 29.0408 
*END

*D_NET *30 0.00441906
*CONN
*P sine_out[30] O
*I *568:X O *D sg13g2_buf_2
*CAP
1 sine_out[30] 0.00151204
2 *568:X 0.000361742
3 *30:10 0.00187379
4 sine_out[30] sine_out[31] 0
5 sine_out[30] sine_out[32] 0
6 sine_out[30] *525:A 0
7 sine_out[30] *566:A 0
8 *30:10 *32:8 0
9 *30:10 *200:8 0
10 *30:10 *224:70 0.000317199
11 *30:10 *226:46 0.00027444
12 sine_out[29] sine_out[30] 0
13 *26:10 sine_out[30] 7.98484e-05
*RES
1 *568:X *30:10 44.1612 
2 *30:10 sine_out[30] 33.3923 
*END

*D_NET *31 0.00349586
*CONN
*P sine_out[31] O
*I *569:X O *D sg13g2_buf_2
*CAP
1 sine_out[31] 0.000554328
2 *569:X 0
3 *31:18 0.00109783
4 *31:12 0.0011936
5 *31:6 0.000650103
6 sine_out[31] sine_out[32] 0
7 *31:12 *66:50 0
8 sine_out[30] sine_out[31] 0
9 *27:16 *31:18 0
*RES
1 *569:X *31:6 40 
2 *31:6 *31:12 46.7774 
3 *31:12 *31:18 47.0246 
4 *31:18 sine_out[31] 26.2289 
*END

*D_NET *32 0.00378428
*CONN
*P sine_out[32] O
*I *570:X O *D sg13g2_buf_2
*CAP
1 sine_out[32] 0.00145679
2 *570:X 0.000435351
3 *32:8 0.00189214
4 sine_out[32] *566:A 0
5 *32:8 *162:12 0
6 *32:8 *201:10 0
7 *32:8 *224:70 0
8 *32:8 *226:46 0
9 sine_out[30] sine_out[32] 0
10 sine_out[31] sine_out[32] 0
11 *30:10 *32:8 0
*RES
1 *570:X *32:8 44.7998 
2 *32:8 sine_out[32] 37.0439 
*END

*D_NET *33 0.00362989
*CONN
*P sine_out[3] O
*I *572:X O *D sg13g2_buf_2
*CAP
1 sine_out[3] 0.00158985
2 *572:X 0.00158985
3 sine_out[3] sine_out[4] 0
4 sine_out[3] *491:B 0
5 sine_out[3] *573:A 0
6 sine_out[3] *34:10 0.000209871
7 sine_out[3] *35:10 0
8 sine_out[3] *37:10 0
9 sine_out[3] *210:24 8.01118e-05
10 sine_out[3] *227:10 8.01116e-05
11 sine_out[3] *232:62 8.00842e-05
12 sine_out[2] sine_out[3] 0
*RES
1 *572:X sine_out[3] 35.3341 
*END

*D_NET *34 0.00307405
*CONN
*P sine_out[4] O
*I *573:X O *D sg13g2_buf_2
*CAP
1 sine_out[4] 0.000495998
2 *573:X 0.000726832
3 *34:10 0.00122283
4 sine_out[4] sine_out[5] 0
5 sine_out[4] sine_out[6] 0
6 sine_out[4] *35:10 0.000176537
7 sine_out[4] *38:12 0
8 *34:10 *573:A 0
9 *34:10 *36:10 0.000241983
10 *34:10 *37:10 0
11 sine_out[1] *34:10 0
12 sine_out[2] *34:10 0
13 sine_out[3] sine_out[4] 0
14 sine_out[3] *34:10 0.000209871
*RES
1 *573:X *34:10 47.0967 
2 *34:10 sine_out[4] 21.8246 
*END

*D_NET *35 0.00292976
*CONN
*P sine_out[5] O
*I *574:X O *D sg13g2_buf_2
*CAP
1 sine_out[5] 0.000403306
2 *574:X 0.000738842
3 *35:10 0.00114215
4 sine_out[5] sine_out[6] 0
5 *35:10 *37:10 0.000468923
6 *35:10 *38:12 0
7 *35:10 *210:24 0
8 *35:10 *241:18 0
9 sine_out[3] *35:10 0
10 sine_out[4] sine_out[5] 0
11 sine_out[4] *35:10 0.000176537
*RES
1 *574:X *35:10 47.931 
2 *35:10 sine_out[5] 24.4985 
*END

*D_NET *36 0.00282515
*CONN
*P sine_out[6] O
*I *575:X O *D sg13g2_buf_2
*CAP
1 sine_out[6] 0.000702105
2 *575:X 0.000484602
3 *36:10 0.00118671
4 sine_out[6] sine_out[7] 0
5 sine_out[6] *38:12 0
6 *36:10 *37:10 0
7 *36:10 *241:26 0
8 sine_out[1] *36:10 0
9 sine_out[2] *36:10 0.000209756
10 sine_out[4] sine_out[6] 0
11 sine_out[5] sine_out[6] 0
12 *29:18 *36:10 0
13 *34:10 *36:10 0.000241983
*RES
1 *575:X *36:10 45.4281 
2 *36:10 sine_out[6] 22.7028 
*END

*D_NET *37 0.0028397
*CONN
*P sine_out[7] O
*I *576:X O *D sg13g2_buf_2
*CAP
1 sine_out[7] 0.000563082
2 *576:X 0.000622306
3 *37:10 0.00118539
4 sine_out[7] sine_out[8] 0
5 sine_out[7] *39:8 0
6 *37:10 *38:12 0
7 *37:10 *241:26 0
8 sine_out[3] *37:10 0
9 sine_out[6] sine_out[7] 0
10 *34:10 *37:10 0
11 *35:10 *37:10 0.000468923
12 *36:10 *37:10 0
*RES
1 *576:X *37:10 46.695 
2 *37:10 sine_out[7] 26.2289 
*END

*D_NET *38 0.00248051
*CONN
*P sine_out[8] O
*I *577:X O *D sg13g2_buf_2
*CAP
1 sine_out[8] 0.000437807
2 *577:X 0.000762391
3 *38:12 0.0012002
4 sine_out[8] sine_out[9] 0
5 sine_out[8] *39:8 0
6 *38:12 *213:32 8.01118e-05
7 *38:12 *241:18 0
8 sine_out[4] *38:12 0
9 sine_out[6] *38:12 0
10 sine_out[7] sine_out[8] 0
11 *35:10 *38:12 0
12 *37:10 *38:12 0
*RES
1 *577:X *38:12 47.2062 
2 *38:12 sine_out[8] 24.9311 
*END

*D_NET *39 0.00273808
*CONN
*P sine_out[9] O
*I *578:X O *D sg13g2_buf_2
*CAP
1 sine_out[9] 7.08049e-05
2 *578:X 0.00117831
3 *39:8 0.00124912
4 *39:8 *578:A 1.54008e-05
5 *39:8 *581:A 0.000144217
6 sine_out[10] *39:8 0
7 sine_out[11] *39:8 8.02267e-05
8 sine_out[7] *39:8 0
9 sine_out[8] sine_out[9] 0
10 sine_out[8] *39:8 0
*RES
1 *578:X *39:8 31.2682 
2 *39:8 sine_out[9] 40.7699 
*END

*D_NET *40 0.000566362
*CONN
*I *515:D I *D sg13g2_dfrbpq_1
*I *433:Y O *D sg13g2_inv_1
*CAP
1 *515:D 0
2 *433:Y 0.000101322
3 *40:8 0.000101322
4 *40:8 *514:CLK 0.000288502
5 *40:8 *515:CLK 7.52158e-05
6 *40:8 *183:12 0
7 *40:8 *222:24 0
*RES
1 *433:Y *40:8 41.5862 
2 *40:8 *515:D 40 
*END

*D_NET *41 0.000160334
*CONN
*I *514:D I *D sg13g2_dfrbpq_1
*I *428:Y O *D sg13g2_xnor2_1
*CAP
1 *514:D 8.01672e-05
2 *428:Y 8.01672e-05
3 *514:D *514:RESET_B 0
*RES
1 *428:Y *514:D 40.8287 
*END

*D_NET *42 0.000800411
*CONN
*I *522:A I *D sg13g2_buf_8
*I *523:A I *D sg13g2_buf_2
*I *515:Q O *D sg13g2_dfrbpq_1
*CAP
1 *522:A 7.10688e-05
2 *523:A 0.000180304
3 *515:Q 2.77263e-05
4 *42:6 0.000279099
5 *522:A *222:12 0
6 *522:A *239:10 0
7 *523:A *222:12 0.000242213
8 *523:A *239:10 0
9 *523:A *242:10 0
*RES
1 *515:Q *42:6 20.3502 
2 *42:6 *523:A 22.0497 
3 *42:6 *522:A 20.9167 
*END

*D_NET *43 0.000537238
*CONN
*I *546:A I *D sg13g2_buf_2
*I *548:A I *D sg13g2_dlygate4sd3_1
*I *507:Q O *D sg13g2_dfrbpq_1
*CAP
1 *546:A 0.000159857
2 *548:A 8.17433e-05
3 *507:Q 2.70189e-05
4 *43:6 0.000268619
5 *546:A *222:40 0
6 *546:A *239:27 0
7 *548:A *222:40 0
8 *548:A *239:27 0
*RES
1 *507:Q *43:6 20.3502 
2 *43:6 *548:A 20.8858 
3 *43:6 *546:A 21.4008 
*END

*D_NET *44 0.00265662
*CONN
*I *544:A I *D sg13g2_buf_1
*I *508:Q O *D sg13g2_dfrbpq_1
*CAP
1 *544:A 0.000185539
2 *508:Q 0.000466279
3 *44:12 0.000651817
4 *544:A *433:A 0
5 *544:A *509:CLK 4.77699e-05
6 *544:A *183:12 0.000291468
7 *544:A *245:12 0.000242301
8 *44:12 *343:A 8.00764e-05
9 *44:12 *414:A 0
10 *44:12 *86:8 0
11 *44:12 *87:8 0.00018128
12 *44:12 *183:12 7.51285e-05
13 *44:12 *238:34 0.00043496
*RES
1 *508:Q *44:12 45.0367 
2 *44:12 *544:A 42.266 
*END

*D_NET *45 0.000220816
*CONN
*I *508:D I *D sg13g2_dfrbpq_1
*I *406:Y O *D sg13g2_xnor2_1
*CAP
1 *508:D 8.65367e-05
2 *406:Y 8.65367e-05
3 *508:D *407:A2 4.77425e-05
*RES
1 *406:Y *508:D 40.9167 
*END

*D_NET *46 0.000184298
*CONN
*I *541:A I *D sg13g2_buf_8
*I *509:Q O *D sg13g2_dfrbpq_1
*CAP
1 *541:A 9.21492e-05
2 *509:Q 9.21492e-05
*RES
1 *509:Q *541:A 41.1639 
*END

*D_NET *47 0.00196649
*CONN
*I *509:D I *D sg13g2_dfrbpq_1
*I *410:X O *D sg13g2_xor2_1
*CAP
1 *509:D 0.000669
2 *410:X 0.000669
3 *509:D *433:A 0
4 *509:D *499:A 4.77425e-05
5 *509:D *508:RESET_B 0
6 *509:D *547:A 0.000209384
7 *509:D *85:14 0
8 *509:D *242:79 0.000371362
*RES
1 *410:X *509:D 46.7259 
*END

*D_NET *48 0.00264432
*CONN
*I *538:A I *D sg13g2_buf_8
*I *539:A I *D sg13g2_buf_1
*I *510:Q O *D sg13g2_dfrbpq_1
*CAP
1 *538:A 0.000327132
2 *539:A 0.000414193
3 *510:Q 7.2868e-05
4 *48:6 0.000814193
5 *538:A *415:B 4.77702e-05
6 *538:A *418:B 0.000209526
7 *538:A *423:A1 0
8 *538:A *221:6 0.000484342
9 *539:A *511:RESET_B 0
10 *539:A *92:22 0
11 *539:A *221:6 0.000274297
12 *539:A *222:12 0
13 *539:A *239:10 0
14 *48:6 *423:A1 0
*RES
1 *510:Q *48:6 20.8446 
2 *48:6 *539:A 24.5629 
3 *48:6 *538:A 23.5638 
*END

*D_NET *49 0.000880368
*CONN
*I *510:D I *D sg13g2_dfrbpq_1
*I *414:X O *D sg13g2_xor2_1
*CAP
1 *510:D 0.000400142
2 *414:X 0.000400142
3 *510:D *413:A 0
4 *510:D *414:B 0
5 *510:D *417:A2 0
6 *510:D *91:10 8.00842e-05
7 *510:D *222:31 0
*RES
1 *414:X *510:D 43.9243 
*END

*D_NET *50 0.000380479
*CONN
*I *537:A I *D sg13g2_buf_8
*I *511:Q O *D sg13g2_dfrbpq_1
*CAP
1 *537:A 0.000150126
2 *511:Q 0.000150126
3 *537:A *62:8 0
4 *537:A *185:10 8.02267e-05
*RES
1 *511:Q *537:A 41.6171 
*END

*D_NET *51 0.000164339
*CONN
*I *511:D I *D sg13g2_dfrbpq_1
*I *418:X O *D sg13g2_xor2_1
*CAP
1 *511:D 8.21696e-05
2 *418:X 8.21696e-05
3 *511:D *422:B 0
4 *511:D *423:A1 0
*RES
1 *418:X *511:D 40.8446 
*END

*D_NET *52 0.000501015
*CONN
*I *532:A I *D sg13g2_buf_1
*I *512:Q O *D sg13g2_dfrbpq_1
*CAP
1 *532:A 0.000145558
2 *512:Q 0.000145558
3 *532:A *226:36 0.000209899
*RES
1 *512:Q *532:A 41.751 
*END

*D_NET *53 0.00109582
*CONN
*I *512:D I *D sg13g2_dfrbpq_1
*I *422:X O *D sg13g2_xor2_1
*CAP
1 *512:D 0.000443075
2 *422:X 0.000443075
3 *512:D *392:A1 0
4 *512:D *422:B 0
5 *512:D *229:6 0
6 *512:D *231:40 0
7 *512:D *237:16 0.000209669
*RES
1 *422:X *512:D 44.2642 
*END

*D_NET *54 0.000590193
*CONN
*I *527:A I *D sg13g2_buf_1
*I *513:Q O *D sg13g2_dfrbpq_1
*CAP
1 *527:A 0.000190926
2 *513:Q 0.000190926
3 *527:A *62:8 0.000208342
*RES
1 *513:Q *527:A 42.2454 
*END

*D_NET *55 0.000419655
*CONN
*I *513:D I *D sg13g2_dfrbpq_1
*I *425:Y O *D sg13g2_xnor2_1
*CAP
1 *513:D 0.000209827
2 *425:Y 0.000209827
3 *513:D *425:A 0
4 *513:D *425:B 0
5 *513:D *513:RESET_B 0
*RES
1 *425:Y *513:D 41.9673 
*END

*D_NET *56 0.0100709
*CONN
*I *377:A1 I *D sg13g2_o21ai_1
*I *352:A I *D sg13g2_nor2_1
*I *507:D I *D sg13g2_dfrbpq_1
*I *407:A1 I *D sg13g2_o21ai_1
*I *348:A I *D sg13g2_nor2_1
*I *342:Y O *D sg13g2_inv_2
*CAP
1 *377:A1 0.000108853
2 *352:A 0.000467668
3 *507:D 0
4 *407:A1 4.53018e-05
5 *348:A 9.50765e-05
6 *342:Y 0.000481927
7 *56:55 0.00057652
8 *56:53 0.00125235
9 *56:18 0.000408719
10 *56:16 0.000344709
11 *56:14 0.00181064
12 *348:A *160:10 0.000124949
13 *348:A *238:43 0
14 *348:A *242:41 4.77425e-05
15 *352:A *368:B_N 0.000685559
16 *352:A *468:C 0.000174746
17 *352:A *227:96 0.000124547
18 *352:A *233:52 0
19 *352:A *233:63 0
20 *352:A *234:22 7.33225e-05
21 *377:A1 *358:B 0.0001122
22 *377:A1 *368:B_N 0.000176309
23 *377:A1 *377:A2 0.0001122
24 *377:A1 *234:22 0.00015461
25 *407:A1 *407:A2 1.8481e-05
26 *407:A1 *242:41 1.8481e-05
27 *56:14 *343:A 0
28 *56:14 *183:43 0.000176599
29 *56:14 *242:79 0
30 *56:16 *543:A 0.000178758
31 *56:18 *543:A 0.00039242
32 *56:18 *160:10 0.000128769
33 *56:18 *238:43 0
34 *56:53 *543:A 7.31655e-05
35 *56:53 *57:10 2.19905e-05
36 *56:53 *122:23 0.000308167
37 *56:53 *168:46 0.000639159
38 *56:53 *168:63 0.000522647
39 *56:53 *172:12 0
40 *56:53 *246:68 0.00021427
*RES
1 *342:Y *56:14 45.0779 
2 *56:14 *56:16 0.8446 
3 *56:16 *56:18 2.8222 
4 *56:18 *348:A 40.9167 
5 *56:18 *407:A1 40.4429 
6 *56:16 *507:D 40 
7 *56:14 *56:53 32.9986 
8 *56:53 *56:55 20 
9 *56:55 *352:A 44.9955 
10 *56:55 *377:A1 41.5965 
*END

*D_NET *57 0.00151123
*CONN