*SPEF "ieee 1481-1999"
*DESIGN "DigitalSine"
*DATE "10:42:19 Sunday December 14, 2025"
*VENDOR "The OpenROAD Project"
*PROGRAM "OpenROAD"
*VERSION "341650e72dad0dc8571822ff8c5d9c5e365327f7"
*DESIGN_FLOW "NAME_SCOPE LOCAL" "PIN_CAP NONE"
*DIVIDER /
*DELIMITER :
*BUS_DELIMITER []
*T_UNIT 1 NS
*C_UNIT 1 PF
*R_UNIT 1 OHM
*L_UNIT 1 HENRY

*NAME_MAP
*3 clk
*4 rst
*5 sign
*6 signB
*7 sine_out[0]
*8 sine_out[10]
*9 sine_out[11]
*10 sine_out[12]
*11 sine_out[13]
*12 sine_out[14]
*13 sine_out[15]
*14 sine_out[16]
*15 sine_out[17]
*16 sine_out[18]
*17 sine_out[19]
*18 sine_out[1]
*19 sine_out[20]
*20 sine_out[21]
*21 sine_out[22]
*22 sine_out[23]
*23 sine_out[24]
*24 sine_out[25]
*25 sine_out[26]
*26 sine_out[27]
*27 sine_out[28]
*28 sine_out[29]
*29 sine_out[2]
*30 sine_out[30]
*31 sine_out[31]
*32 sine_out[32]
*33 sine_out[3]
*34 sine_out[4]
*35 sine_out[5]
*36 sine_out[6]
*37 sine_out[7]
*38 sine_out[8]
*39 sine_out[9]
*40 CTRL\.P0
*41 CTRL\.P1
*42 CTRL\.S0
*43 DPATH\.SUM\.Cout0
*44 DPATH\.SUM\.fa_1\.A
*45 DPATH\.SUM\.fa_1\.S
*46 DPATH\.SUM\.fa_2\.A
*47 DPATH\.SUM\.fa_2\.S
*48 DPATH\.SUM\.fa_3\.A
*49 DPATH\.SUM\.fa_3\.S
*50 DPATH\.SUM\.fa_4\.A
*51 DPATH\.SUM\.fa_4\.S
*52 DPATH\.SUM\.fa_5\.A
*53 DPATH\.SUM\.fa_5\.S
*54 DPATH\.SUM\.fa_6\.A
*55 DPATH\.SUM\.fa_6\.S
*56 DPATH\.SUM\.ha_0\.S
*57 _000_
*58 _001_
*59 _002_
*60 _003_
*61 _004_
*62 _005_
*63 _006_
*64 _007_
*65 _008_
*66 _009_
*67 _010_
*68 _011_
*69 _012_
*70 _013_
*71 _014_
*72 _015_
*73 _016_
*74 _017_
*75 _018_
*76 _019_
*77 _020_
*78 _021_
*79 _022_
*80 _023_
*81 _024_
*82 _025_
*83 _026_
*84 _027_
*85 _028_
*86 _029_
*87 _030_
*88 _031_
*89 _032_
*90 _033_
*91 _034_
*92 _035_
*93 _036_
*94 _037_
*95 _038_
*96 _039_
*97 _040_
*98 _041_
*99 _042_
*100 _043_
*101 _044_
*102 _045_
*103 _046_
*104 _047_
*105 _048_
*106 _049_
*107 _050_
*108 _051_
*109 _052_
*110 _053_
*111 _054_
*112 _055_
*113 _056_
*114 _057_
*115 _058_
*116 _059_
*117 _060_
*118 _061_
*119 _062_
*120 _063_
*121 _064_
*122 _065_
*123 _066_
*124 _067_
*125 _068_
*126 _069_
*127 _070_
*128 _071_
*129 _072_
*130 _073_
*131 _074_
*132 _075_
*133 _076_
*134 _077_
*135 _078_
*136 _079_
*137 _080_
*138 _081_
*139 _082_
*140 _083_
*141 _084_
*142 _085_
*143 _086_
*144 _087_
*145 _088_
*146 _089_
*147 _090_
*148 _091_
*149 _092_
*150 _093_
*151 _094_
*152 _095_
*153 _096_
*154 _097_
*155 _098_
*156 _099_
*157 _100_
*158 _101_
*159 _102_
*160 _103_
*161 _104_
*162 _105_
*163 _106_
*164 _107_
*165 _108_
*166 _109_
*167 _110_
*168 _111_
*169 _112_
*170 _113_
*171 _114_
*172 _115_
*173 _116_
*174 _117_
*175 _118_
*176 _119_
*177 _120_
*178 _121_
*179 _122_
*180 _123_
*181 _124_
*182 clknet_0_clk
*183 clknet_1_0__leaf_clk
*184 clknet_1_1__leaf_clk
*185 net1
*186 net10
*187 net11
*188 net12
*189 net13
*190 net14
*191 net15
*192 net16
*193 net17
*194 net18
*195 net19
*196 net2
*197 net20
*198 net21
*199 net22
*200 net23
*201 net24
*202 net25
*203 net26
*204 net27
*205 net28
*206 net29
*207 net3
*208 net30
*209 net31
*210 net32
*211 net33
*212 net34
*213 net35
*214 net36
*215 net37
*216 net38
*217 net39
*218 net4
*219 net40
*220 net41
*221 net42
*222 net5
*223 net51
*224 net52
*225 net53
*226 net54
*227 net55
*228 net56
*229 net57
*230 net58
*231 net59
*232 net6
*233 net60
*234 net61
*235 net62
*236 net63
*237 net64
*238 net65
*239 net66
*240 net67
*241 net68
*242 net69
*243 net7
*244 net70
*245 net71
*246 net72
*247 net73
*248 net74
*249 net8
*250 net9
*251 FILLER_0_0
*252 FILLER_0_105
*253 FILLER_0_112
*254 FILLER_0_119
*255 FILLER_0_126
*256 FILLER_0_128
*257 FILLER_0_14
*258 FILLER_0_21
*259 FILLER_0_28
*260 FILLER_0_35
*261 FILLER_0_42
*262 FILLER_0_49
*263 FILLER_0_56
*264 FILLER_0_66
*265 FILLER_0_7
*266 FILLER_0_70
*267 FILLER_0_84
*268 FILLER_0_91
*269 FILLER_0_98
*270 FILLER_10_126
*271 FILLER_10_128
*272 FILLER_10_18
*273 FILLER_10_20
*274 FILLER_10_30
*275 FILLER_10_32
*276 FILLER_10_4
*277 FILLER_10_60
*278 FILLER_10_62
*279 FILLER_10_82
*280 FILLER_11_110
*281 FILLER_11_128
*282 FILLER_11_16
*283 FILLER_11_18
*284 FILLER_11_28
*285 FILLER_11_30
*286 FILLER_11_36
*287 FILLER_11_55
*288 FILLER_11_62
*289 FILLER_11_72
*290 FILLER_11_79
*291 FILLER_11_83
*292 FILLER_11_88
*293 FILLER_11_95
*294 FILLER_11_97
*295 FILLER_12_0
*296 FILLER_12_105
*297 FILLER_12_107
*298 FILLER_12_126
*299 FILLER_12_128
*300 FILLER_12_2
*301 FILLER_12_29
*302 FILLER_12_31
*303 FILLER_12_46
*304 FILLER_12_62
*305 FILLER_12_73
*306 FILLER_12_86
*307 FILLER_13_109
*308 FILLER_13_111
*309 FILLER_13_127
*310 FILLER_13_26
*311 FILLER_13_41
*312 FILLER_13_63
*313 FILLER_14_0
*314 FILLER_14_128
*315 FILLER_14_2
*316 FILLER_14_24
*317 FILLER_14_35
*318 FILLER_14_41
*319 FILLER_14_68
*320 FILLER_14_78
*321 FILLER_14_85
*322 FILLER_14_87
*323 FILLER_14_93
*324 FILLER_15_0
*325 FILLER_15_108
*326 FILLER_15_58
*327 FILLER_15_83
*328 FILLER_1_0
*329 FILLER_1_100
*330 FILLER_1_107
*331 FILLER_1_114
*332 FILLER_1_121
*333 FILLER_1_128
*334 FILLER_1_14
*335 FILLER_1_21
*336 FILLER_1_28
*337 FILLER_1_35
*338 FILLER_1_7
*339 FILLER_2_100
*340 FILLER_2_11
*341 FILLER_2_114
*342 FILLER_2_121
*343 FILLER_2_18
*344 FILLER_2_25
*345 FILLER_2_4
*346 FILLER_2_96
*347 FILLER_3_0
*348 FILLER_3_102
*349 FILLER_3_109
*350 FILLER_3_116
*351 FILLER_3_123
*352 FILLER_3_127
*353 FILLER_3_14
*354 FILLER_3_21
*355 FILLER_3_28
*356 FILLER_3_48
*357 FILLER_3_65
*358 FILLER_3_7
*359 FILLER_4_0
*360 FILLER_4_105
*361 FILLER_4_112
*362 FILLER_4_119
*363 FILLER_4_126
*364 FILLER_4_128
*365 FILLER_4_13
*366 FILLER_4_20
*367 FILLER_4_43
*368 FILLER_4_45
*369 FILLER_4_7
*370 FILLER_4_70
*371 FILLER_4_74
*372 FILLER_4_9
*373 FILLER_5_0
*374 FILLER_5_111
*375 FILLER_5_125
*376 FILLER_5_42
*377 FILLER_6_0
*378 FILLER_6_125
*379 FILLER_6_18
*380 FILLER_6_55
*381 FILLER_6_69
*382 FILLER_6_71
*383 FILLER_7_125
*384 FILLER_7_28
*385 FILLER_7_34
*386 FILLER_7_4
*387 FILLER_7_62
*388 FILLER_7_66
*389 FILLER_7_80
*390 FILLER_7_89
*391 FILLER_7_96
*392 FILLER_8_101
*393 FILLER_8_112
*394 FILLER_8_114
*395 FILLER_8_128
*396 FILLER_8_73
*397 FILLER_8_77
*398 FILLER_9_0
*399 FILLER_9_108
*400 FILLER_9_128
*401 FILLER_9_2
*402 FILLER_9_43
*403 FILLER_9_49
*404 FILLER_9_59
*405 FILLER_9_63
*406 _125_
*407 _126_
*408 _127_
*409 _128_
*410 _129_
*411 _130_
*412 _131_
*413 _132_
*414 _133_
*415 _134_
*416 _135_
*417 _136_
*418 _137_
*419 _138_
*420 _139_
*421 _140_
*422 _141_
*423 _142_
*424 _143_
*425 _144_
*426 _145_
*427 _146_
*428 _147_
*429 _148_
*430 _149_
*431 _150_
*432 _151_
*433 _152_
*434 _153_
*435 _154_
*436 _155_
*437 _156_
*438 _157_
*439 _158_
*440 _159_
*441 _160_
*442 _161_
*443 _162_
*444 _163_
*445 _164_
*446 _165_
*447 _166_
*448 _167_
*449 _168_
*450 _169_
*451 _170_
*452 _171_
*453 _172_
*454 _173_
*455 _174_
*456 _175_
*457 _176_
*458 _177_
*459 _178_
*460 _179_
*461 _180_
*462 _181_
*463 _182_
*464 _183_
*465 _184_
*466 _185_
*467 _186_
*468 _187_
*469 _188_
*470 _189_
*471 _190_
*472 _191_
*473 _192_
*474 _193_
*475 _194_
*476 _195_
*477 _196_
*478 _197_
*479 _198_
*480 _199_
*481 _200_
*482 _201_
*483 _202_
*484 _203_
*485 _204_
*486 _205_
*487 _206_
*488 _207_
*489 _208_
*490 _209_
*491 _210_
*492 _211_
*493 _212_
*494 _213_
*495 _214_
*496 _215_
*497 _216_
*498 _217_
*499 _218_
*500 _219_
*501 _220_
*502 _221_
*503 _222_
*504 _223_
*505 _224_
*506 _225_
*507 _226_
*508 _227_
*509 _228_
*510 _229_
*511 _230_
*512 _231_
*513 _232_
*514 _233_
*515 _234_
*516 _235_
*517 _236_
*518 _237_
*519 _238_
*520 _239_
*521 _240_
*522 _241_
*523 _242_
*524 _243_
*525 _244_
*526 _245_
*527 _246_
*528 _247_
*529 _248_
*530 _249_
*531 _250_
*532 _251_
*533 _252_
*534 _253_
*535 _254_
*536 _255_
*537 _256_
*538 _257_
*539 _258_
*540 _259_
*541 _260_
*542 _261_
*543 _262_
*544 _263_
*545 _264_
*546 _265_
*547 _266_
*548 _267_
*549 _268_
*550 _269_
*551 _270_
*552 _271_
*553 _272_
*554 _273_
*555 _274_
*556 _275_
*557 _276_
*558 _277_
*559 _278_
*560 _279_
*561 _280_
*562 _281_
*563 _282_
*564 _283_
*565 _284_
*566 _285_
*567 _286_
*568 _287_
*569 _288_
*570 _289_
*571 _290_
*572 _291_
*573 _292_
*574 _293_
*575 _294_
*576 _295_
*577 _296_
*578 _297_
*579 _298_
*580 _299_
*581 _300_
*582 _301_
*583 clkbuf_0_clk
*584 clkbuf_1_0__f_clk
*585 clkbuf_1_1__f_clk
*586 clkload0
*587 fanout37
*588 fanout51
*589 fanout52
*590 fanout53
*591 fanout54
*592 fanout55
*593 fanout56
*594 fanout57
*595 fanout58
*596 fanout59
*597 fanout60
*598 fanout61
*599 fanout62
*600 fanout63
*601 fanout64
*602 fanout65
*603 fanout66
*604 fanout67
*605 fanout68
*606 fanout69
*607 fanout70
*608 fanout71
*609 fanout72
*610 fanout73
*611 fanout74
*612 hold1
*613 hold2
*614 hold3
*615 hold4
*616 hold5
*617 input1
*618 output10
*619 output11
*620 output12
*621 output13
*622 output14
*623 output15
*624 output16
*625 output17
*626 output18
*627 output19
*628 output2
*629 output20
*630 output21
*631 output22
*632 output23
*633 output24
*634 output25
*635 output26
*636 output27
*637 output28
*638 output29
*639 output3
*640 output30
*641 output31
*642 output32
*643 output33
*644 output34
*645 output35
*646 output36
*647 output4
*648 output5
*649 output6
*650 output7
*651 output8
*652 output9

*PORTS
clk I
rst I
sign O
signB O
sine_out[0] O
sine_out[10] O
sine_out[11] O
sine_out[12] O
sine_out[13] O
sine_out[14] O
sine_out[15] O
sine_out[16] O
sine_out[17] O
sine_out[18] O
sine_out[19] O
sine_out[1] O
sine_out[20] O
sine_out[21] O
sine_out[22] O
sine_out[23] O
sine_out[24] O
sine_out[25] O
sine_out[26] O
sine_out[27] O
sine_out[28] O
sine_out[29] O
sine_out[2] O
sine_out[30] O
sine_out[31] O
sine_out[32] O
sine_out[3] O
sine_out[4] O
sine_out[5] O
sine_out[6] O
sine_out[7] O
sine_out[8] O
sine_out[9] O

*D_NET *3 0.00867585
*CONN
*P clk I
*I *583:A I *D sg13g2_buf_8
*CAP
1 clk 0.00207294
2 *583:A 4.08322e-05
3 *3:13 0.00112316
4 *3:9 0.00315527
5 *3:9 *452:A 0.000144285
6 *3:9 *459:B1 0
7 *3:9 *467:A2 0
8 *3:9 *607:A 0
9 *3:9 *631:A 0
10 *3:9 *634:A 0.000177555
11 *3:9 *52:25 0
12 *3:9 *238:12 0
13 *3:9 *246:10 0
14 *3:13 *566:A 0.000320354
15 *3:13 *59:8 0
16 *3:13 *182:30 0.000927047
17 *3:13 *184:19 0
18 *3:13 *215:10 0.000266405
19 *3:13 *215:12 0.000319852
20 *3:13 *215:16 0.00012816
21 *3:13 *237:12 0
*RES
1 clk *3:9 42.3355 
2 *3:9 *3:13 34.935 
3 *3:13 *583:A 40.3193 
*END

*D_NET *4 0.000716484
*CONN
*P rst I
*I *617:A I *D sg13g2_buf_1
*CAP
1 rst 0.000358242
2 *617:A 0.000358242
*RES
1 rst *617:A 44.1664 
*END

*D_NET *5 0.000574528
*CONN
*P sign O
*I *628:X O *D sg13g2_buf_1
*CAP
1 sign 0.000287264
2 *628:X 0.000287264
*RES
1 *628:X sign 43.4814 
*END

*D_NET *6 0.00303837
*CONN
*P signB O
*I *639:X O *D sg13g2_buf_1
*CAP
1 signB 0.00025313
2 *639:X 0.000691176
3 *6:10 0.000944306
4 *6:10 sine_out[0] 0.00105393
5 *6:10 sine_out[1] 0
6 *6:10 *640:A 4.79124e-05
7 *6:10 *230:103 4.79124e-05
*RES
1 *639:X *6:10 47.3748 
2 *6:10 signB 2.9149 
*END

*D_NET *7 0.00536904
*CONN
*P sine_out[0] O
*I *647:X O *D sg13g2_buf_1
*CAP
1 sine_out[0] 0.00215756
2 *647:X 0.00215756
3 sine_out[0] sine_out[1] 0
4 sine_out[0] *581:RESET_B 0
5 sine_out[0] *581:D 0
6 sine_out[0] *643:A 0
7 sine_out[0] *226:63 0
8 *6:10 sine_out[0] 0.00105393
*RES
1 *647:X sine_out[0] 45.956 
*END

*D_NET *8 0.00219572
*CONN
*P sine_out[10] O
*I *648:X O *D sg13g2_buf_1
*CAP
1 sine_out[10] 0.00109786
2 *648:X 0.00109786
3 sine_out[10] sine_out[11] 0
4 sine_out[10] sine_out[8] 0
5 sine_out[10] sine_out[9] 0
6 sine_out[10] *649:A 0
7 sine_out[10] *651:A 0
8 sine_out[10] *12:12 0
9 sine_out[10] *235:64 0
*RES
1 *648:X sine_out[10] 31.948 
*END

*D_NET *9 0.00312306
*CONN
*P sine_out[11] O
*I *649:X O *D sg13g2_buf_1
*CAP
1 sine_out[11] 0.000756739
2 *649:X 0.000506706
3 *9:12 0.00126344
4 sine_out[11] sine_out[12] 0
5 sine_out[11] *12:12 0.000548653
6 *9:12 *649:A 4.75165e-05
7 *9:12 *650:A 0
8 *9:12 *10:8 0
9 *9:12 *11:8 0
10 *9:12 *165:26 0
11 sine_out[10] sine_out[11] 0
*RES
1 *649:X *9:12 44.5732 
2 *9:12 sine_out[11] 28.5268 
*END

*D_NET *10 0.00343506
*CONN
*P sine_out[12] O
*I *650:X O *D sg13g2_buf_1
*CAP
1 sine_out[12] 0.000949068
2 *650:X 0.000291714
3 *10:8 0.00124078
4 sine_out[12] sine_out[13] 0
5 sine_out[12] *12:12 0
6 sine_out[12] *13:10 0.00056532
7 *10:8 *514:A 0
8 *10:8 *11:8 0.000388175
9 *10:8 *235:64 0
10 sine_out[11] sine_out[12] 0
11 *9:12 *10:8 0
*RES
1 *650:X *10:8 42.8222 
2 *10:8 sine_out[12] 28.0125 
*END

*D_NET *11 0.00336601
*CONN
*P sine_out[13] O
*I *651:X O *D sg13g2_buf_1
*CAP
1 sine_out[13] 0.000865769
2 *651:X 0.000246538
3 *11:8 0.00111231
4 sine_out[13] sine_out[14] 0
5 sine_out[13] *13:10 0
6 sine_out[13] *14:10 0.000597899
7 sine_out[13] *104:33 8.01118e-05
8 *11:8 *514:A 0
9 *11:8 *187:18 7.52149e-05
10 sine_out[12] sine_out[13] 0
11 *9:12 *11:8 0
12 *10:8 *11:8 0.000388175
*RES
1 *651:X *11:8 42.8222 
2 *11:8 sine_out[13] 29.785 
*END

*D_NET *12 0.00297422
*CONN
*P sine_out[14] O
*I *652:X O *D sg13g2_buf_1
*CAP
1 sine_out[14] 0.000424534
2 *652:X 0.000696968
3 *12:12 0.0011215
4 sine_out[14] sine_out[15] 0
5 *12:12 *513:A2 0
6 *12:12 *14:10 0.000182567
7 sine_out[10] *12:12 0
8 sine_out[11] *12:12 0.000548653
9 sine_out[12] *12:12 0
10 sine_out[13] sine_out[14] 0
*RES
1 *652:X *12:12 47.1379 
2 *12:12 sine_out[14] 24.8101 
*END

*D_NET *13 0.00304349
*CONN
*P sine_out[15] O
*I *618:X O *D sg13g2_buf_1
*CAP
1 sine_out[15] 0.000469023
2 *618:X 0.000571748
3 *13:10 0.00104077
4 sine_out[15] sine_out[16] 0
5 *13:10 *14:10 0.00039663
6 sine_out[12] *13:10 0.00056532
7 sine_out[13] *13:10 0
8 sine_out[14] sine_out[15] 0
*RES
1 *618:X *13:10 46.6023 
2 *13:10 sine_out[15] 21.1331 
*END

*D_NET *14 0.00310734
*CONN
*P sine_out[16] O
*I *619:X O *D sg13g2_buf_1
*CAP
1 sine_out[16] 0.000443194
2 *619:X 0.00052193
3 *14:10 0.000965125
4 sine_out[16] sine_out[17] 0
5 sine_out[13] *14:10 0.000597899
6 sine_out[15] sine_out[16] 0
7 *12:12 *14:10 0.000182567
8 *13:10 *14:10 0.00039663
*RES
1 *619:X *14:10 46.8186 
2 *14:10 sine_out[16] 25.0264 
*END

*D_NET *15 0.00165431
*CONN
*P sine_out[17] O
*I *620:X O *D sg13g2_buf_1
*CAP
1 sine_out[17] 0.000827155
2 *620:X 0.000827155
3 sine_out[17] sine_out[18] 0
4 sine_out[16] sine_out[17] 0
*RES
1 *620:X sine_out[17] 25.0786 
*END

*D_NET *16 0.00163551
*CONN
*P sine_out[18] O
*I *621:X O *D sg13g2_buf_1
*CAP
1 sine_out[18] 0.000817755
2 *621:X 0.000817755
3 sine_out[18] sine_out[19] 0
4 sine_out[18] sine_out[20] 0
5 sine_out[17] sine_out[18] 0
*RES
1 *621:X sine_out[18] 22.0188 
*END

*D_NET *17 0.0019275
*CONN
*P sine_out[19] O
*I *622:X O *D sg13g2_buf_1
*CAP
1 sine_out[19] 0.000956022
2 *622:X 0.000956022
3 sine_out[19] sine_out[20] 1.54556e-05
4 sine_out[18] sine_out[19] 0
*RES
1 *622:X sine_out[19] 29.27 
*END

*D_NET *18 0.005635
*CONN
*P sine_out[1] O
*I *623:X O *D sg13g2_buf_1
*CAP
1 sine_out[1] 0.00197182
2 *623:X 0.00197182
3 sine_out[1] sine_out[2] 0
4 sine_out[1] sine_out[3] 0
5 sine_out[1] *411:B 1.21474e-05
6 sine_out[1] *430:A 0
7 sine_out[1] *430:B 0
8 sine_out[1] *639:A 0.000177555
9 sine_out[1] *640:A 4.77702e-05
10 sine_out[1] *643:A 0.00027467
11 sine_out[1] *33:14 0.000371998
12 sine_out[1] *36:10 0.000759449
13 sine_out[1] *158:12 0
14 sine_out[1] *213:22 0
15 sine_out[1] *226:63 0
16 sine_out[1] *230:103 4.77699e-05
17 sine_out[0] sine_out[1] 0
18 *6:10 sine_out[1] 0
*RES
1 *623:X sine_out[1] 41.6506 
*END

*D_NET *19 0.00221789
*CONN
*P sine_out[20] O
*I *624:X O *D sg13g2_buf_1
*CAP
1 sine_out[20] 0.00109352
2 *624:X 0.00109352
3 sine_out[20] sine_out[21] 0
4 sine_out[20] *180:10 1.54008e-05
5 sine_out[18] sine_out[20] 0
6 sine_out[19] sine_out[20] 1.54556e-05
*RES
1 *624:X sine_out[20] 31.433 
*END

*D_NET *20 0.00193249
*CONN
*P sine_out[21] O
*I *625:X O *D sg13g2_buf_1
*CAP
1 sine_out[21] 0.000926155
2 *625:X 0.000926155
3 sine_out[21] sine_out[22] 8.01846e-05
4 sine_out[21] *448:B 0
5 sine_out[20] sine_out[21] 0
*RES
1 *625:X sine_out[21] 30.1954 
*END

*D_NET *21 0.00205124
*CONN
*P sine_out[22] O
*I *626:X O *D sg13g2_buf_1
*CAP
1 sine_out[22] 0.000896883
2 *626:X 0.000896883
3 sine_out[22] sine_out[23] 0.000177288
4 sine_out[22] *626:A 0
5 sine_out[22] *26:12 0
6 sine_out[21] sine_out[22] 8.01846e-05
*RES
1 *626:X sine_out[22] 30.712 
*END

*D_NET *22 0.00308161
*CONN
*P sine_out[23] O
*I *627:X O *D sg13g2_buf_1
*CAP
1 sine_out[23] 0.000436327
2 *627:X 0.000429074
3 *22:10 0.000865401
4 sine_out[23] sine_out[24] 0
5 *22:10 sine_out[24] 0.000565748
6 *22:10 *26:12 0.000607772
7 sine_out[22] sine_out[23] 0.000177288
*RES
1 *627:X *22:10 45.3663 
2 *22:10 sine_out[23] 22.1891 
*END

*D_NET *23 0.00350811
*CONN
*P sine_out[24] O
*I *629:X O *D sg13g2_buf_1
*CAP
1 sine_out[24] 0.000864739
2 *629:X 0.000864739
3 sine_out[24] sine_out[25] 0.00121288
4 sine_out[24] *26:12 0
5 sine_out[24] *227:88 0
6 sine_out[23] sine_out[24] 0
7 *22:10 sine_out[24] 0.000565748
*RES
1 *629:X sine_out[24] 30.712 
*END

*D_NET *24 0.00307975
*CONN
*P sine_out[25] O
*I *630:X O *D sg13g2_buf_1
*CAP
1 sine_out[25] 0.000933435
2 *630:X 0.000933435
3 sine_out[25] sine_out[26] 0
4 sine_out[24] sine_out[25] 0.00121288
*RES
1 *630:X sine_out[25] 30.2834 
*END

*D_NET *25 0.00277683
*CONN
*P sine_out[26] O
*I *631:X O *D sg13g2_buf_1
*CAP
1 sine_out[26] 0.000460347
2 *631:X 0.000721586
3 *25:10 0.00118193
4 sine_out[26] sine_out[27] 0
5 *25:10 sine_out[28] 0.000177442
6 *25:10 sine_out[30] 0
7 *25:10 *26:12 0.000235518
8 sine_out[25] sine_out[26] 0
*RES
1 *631:X *25:10 47.5911 
2 *25:10 sine_out[26] 25.2427 
*END

*D_NET *26 0.00337546
*CONN
*P sine_out[27] O
*I *632:X O *D sg13g2_buf_1
*CAP
1 sine_out[27] 0.000488635
2 *632:X 0.000777449
3 *26:12 0.00126608
4 sine_out[27] sine_out[28] 0
5 *26:12 *626:A 0
6 *26:12 *187:10 0
7 sine_out[22] *26:12 0
8 sine_out[24] *26:12 0
9 sine_out[26] sine_out[27] 0
10 *22:10 *26:12 0.000607772
11 *25:10 *26:12 0.000235518
*RES
1 *632:X *26:12 48.9301 
2 *26:12 sine_out[27] 20.9798 
*END

*D_NET *27 0.00429483
*CONN
*P sine_out[28] O
*I *633:X O *D sg13g2_buf_1
*CAP
1 sine_out[28] 0.00148743
2 *633:X 0.000201139
3 *27:12 0.00168857
4 sine_out[28] sine_out[29] 0
5 sine_out[28] *450:A 0
6 sine_out[28] *450:B 0.000112426
7 sine_out[28] *464:A 0.000143908
8 sine_out[28] *464:B 4.77425e-05
9 sine_out[28] *465:A1 0
10 sine_out[28] *468:B1 0
11 sine_out[28] *631:A 0
12 sine_out[28] *78:6 0.000208177
13 *27:12 *465:A1 4.8195e-05
14 *27:12 *201:10 0.000179802
15 *27:12 *204:8 0
16 sine_out[27] sine_out[28] 0
17 *25:10 sine_out[28] 0.000177442
*RES
1 *633:X *27:12 42.2248 
2 *27:12 sine_out[28] 35.7752 
*END

*D_NET *28 0.00379491
*CONN
*P sine_out[29] O
*I *634:X O *D sg13g2_buf_1
*CAP
1 sine_out[29] 0.000447494
2 *634:X 0.000268763
3 *28:12 0.0015381
4 *28:8 0.00135937
5 sine_out[29] sine_out[30] 0
6 *28:8 *75:14 0
7 *28:8 *199:10 0
8 *28:8 *201:10 0
9 *28:8 *228:14 0.000181192
10 *28:12 *30:14 0
11 *28:12 *31:16 0
12 *28:12 *166:69 0
13 sine_out[28] sine_out[29] 0
*RES
1 *634:X *28:8 42.575 
2 *28:8 *28:12 27.6296 
3 *28:12 sine_out[29] 45.0264 
*END

*D_NET *29 0.00349278
*CONN
*P sine_out[2] O
*I *635:X O *D sg13g2_buf_1
*CAP
1 sine_out[2] 0.000460335
2 *635:X 0
3 *29:10 0.00170965
4 *29:6 0.00124932
5 sine_out[2] sine_out[3] 0
6 sine_out[2] *36:10 7.34783e-05
7 *29:10 *213:22 0
8 *29:10 *214:16 0
9 *29:10 *231:64 0
10 sine_out[1] sine_out[2] 0
*RES
1 *635:X *29:6 40 
2 *29:6 *29:10 34.5951 
3 *29:10 sine_out[2] 44.5114 
*END

*D_NET *30 0.0048963
*CONN
*P sine_out[30] O
*I *636:X O *D sg13g2_buf_1
*CAP
1 sine_out[30] 0.000772362
2 *636:X 0.000157847
3 *30:14 0.00179266
4 *30:8 0.00117815
5 sine_out[30] sine_out[31] 0
6 *30:8 *66:64 0
7 *30:8 *66:68 0
8 *30:8 *168:90 0.000233442
9 *30:8 *205:10 0
10 *30:8 *234:41 0.000128306
11 *30:14 *229:57 0.000633531
12 *30:14 *233:48 0
13 sine_out[29] sine_out[30] 0
14 *25:10 sine_out[30] 0
15 *28:12 *30:14 0
*RES
1 *636:X *30:8 41.8334 
2 *30:8 *30:14 31.4845 
3 *30:14 sine_out[30] 47.8795 
*END

*D_NET *31 0.00418527
*CONN
*P sine_out[31] O
*I *637:X O *D sg13g2_buf_1
*CAP
1 sine_out[31] 0.000451967
2 *637:X 0
3 *31:16 0.00143537
4 *31:12 0.00164067
5 *31:6 0.000657264
6 sine_out[31] sine_out[32] 0
7 *31:12 *32:14 0
8 *31:12 *213:14 0
9 *31:16 *32:18 0
10 sine_out[30] sine_out[31] 0
11 *28:12 *31:16 0
*RES
1 *637:X *31:6 40 
2 *31:6 *31:12 47.0246 
3 *31:12 *31:16 30.7017 
4 *31:16 sine_out[31] 45.2427 
*END

*D_NET *32 0.00441665
*CONN
*P sine_out[32] O
*I *638:X O *D sg13g2_buf_1
*CAP
1 sine_out[32] 0.000165294
2 *638:X 2.58835e-05
3 *32:18 0.00131926
4 *32:14 0.00196942
5 *32:8 0.00084133
6 *32:8 *171:68 4.76977e-05
7 *32:8 *223:103 4.77699e-05
8 sine_out[31] sine_out[32] 0
9 *31:12 *32:14 0
10 *31:16 *32:18 0
*RES
1 *638:X *32:8 40.3193 
2 *32:8 *32:14 49.0022 
3 *32:14 *32:18 33.2973 
4 *32:18 sine_out[32] 41.9982 
*END

*D_NET *33 0.00639975
*CONN
*P sine_out[3] O
*I *640:X O *D sg13g2_buf_1
*CAP
1 sine_out[3] 0.00140873
2 *640:X 0.000461565
3 *33:14 0.0018703
4 sine_out[3] sine_out[4] 0
5 sine_out[3] *412:B 0
6 sine_out[3] *493:A 8.00842e-05
7 sine_out[3] *565:A 4.77425e-05
8 sine_out[3] *646:A 0
9 sine_out[3] *35:20 0
10 sine_out[3] *36:10 0
11 sine_out[3] *37:10 0.000629972
12 sine_out[3] *38:12 8.01846e-05
13 sine_out[3] *39:10 0
14 sine_out[3] *158:48 0.000112499
15 sine_out[3] *213:22 0.000209729
16 sine_out[3] *230:16 0.000112426
17 sine_out[3] *230:95 4.77425e-05
18 sine_out[3] *230:110 0.000177157
19 sine_out[3] *231:77 0.000112648
20 *33:14 *430:A 0
21 *33:14 *430:B 0.000209899
22 *33:14 *157:8 0.000387033
23 *33:14 *203:10 0
24 *33:14 *226:63 8.00425e-05
25 sine_out[1] sine_out[3] 0
26 sine_out[1] *33:14 0.000371998
27 sine_out[2] sine_out[3] 0
*RES
1 *640:X *33:14 45.2015 
2 *33:14 sine_out[3] 35.2955 
*END

*D_NET *34 0.00594166
*CONN
*P sine_out[4] O
*I *641:X O *D sg13g2_buf_1
*CAP
1 sine_out[4] 0.00177748
2 *641:X 0.000129446
3 *34:8 0.00190693
4 sine_out[4] sine_out[5] 0
5 sine_out[4] *417:B 0
6 sine_out[4] *498:B 0.000499758
7 sine_out[4] *558:B 0.000273246
8 sine_out[4] *35:20 0
9 sine_out[4] *39:10 0.000564627
10 sine_out[4] *166:45 0
11 sine_out[4] *166:60 0
12 sine_out[4] *210:18 0
13 sine_out[4] *243:10 0.000790178
14 sine_out[4] *248:77 0
15 *34:8 *207:10 0
16 *34:8 *209:20 0
17 sine_out[3] sine_out[4] 0
*RES
1 *641:X *34:8 41.339 
2 *34:8 sine_out[4] 39.3537 
*END

*D_NET *35 0.0057839
*CONN
*P sine_out[5] O
*I *642:X O *D sg13g2_buf_1
*CAP
1 sine_out[5] 0.000928911
2 *642:X 0.000131904
3 *35:20 0.00196497
4 *35:8 0.00116797
5 sine_out[5] sine_out[6] 0
6 sine_out[5] sine_out[8] 0
7 *35:8 *556:A 0.000126358
8 *35:8 *642:A 0.000389535
9 *35:8 *169:18 0
10 *35:20 *412:B 4.77347e-05
11 *35:20 *498:B 0
12 *35:20 *565:A 0
13 *35:20 *646:A 0.000176105
14 *35:20 *38:12 0
15 *35:20 *39:10 1.54008e-05
16 *35:20 *158:48 0
17 *35:20 *168:57 0.000209499
18 *35:20 *169:18 0.00011101
19 *35:20 *212:8 0
20 *35:20 *230:118 8.00842e-05
21 *35:20 *231:77 0
22 *35:20 *243:10 0.000434416
23 sine_out[3] *35:20 0
24 sine_out[4] sine_out[5] 0
25 sine_out[4] *35:20 0
*RES
1 *642:X *35:8 41.8334 
2 *35:8 *35:20 49.9292 
3 *35:20 sine_out[5] 29.6202 
*END

*D_NET *36 0.00351708
*CONN
*P sine_out[6] O
*I *643:X O *D sg13g2_buf_1
*CAP
1 sine_out[6] 0.000402759
2 *643:X 0.000939318
3 *36:10 0.00134208
4 sine_out[6] sine_out[7] 0
5 *36:10 *37:10 0
6 sine_out[1] *36:10 0.000759449
7 sine_out[2] *36:10 7.34783e-05
8 sine_out[3] *36:10 0
9 sine_out[5] sine_out[6] 0
*RES
1 *643:X *36:10 49.8777 
2 *36:10 sine_out[6] 23.6193 
*END

*D_NET *37 0.00324504
*CONN
*P sine_out[7] O
*I *644:X O *D sg13g2_buf_1
*CAP
1 sine_out[7] 0.000392348
2 *644:X 0.000915185
3 *37:10 0.00130753
4 sine_out[7] sine_out[8] 0
5 *37:10 *39:10 0
6 sine_out[3] *37:10 0.000629972
7 sine_out[6] sine_out[7] 0
8 *36:10 *37:10 0
*RES
1 *644:X *37:10 49.4451 
2 *37:10 sine_out[7] 21.0071 
*END

*D_NET *38 0.0026543
*CONN
*P sine_out[8] O
*I *645:X O *D sg13g2_buf_1
*CAP
1 sine_out[8] 0.000737065
2 *645:X 0.000549994
3 *38:12 0.00128706
4 sine_out[8] sine_out[9] 0
5 *38:12 *650:A 0
6 *38:12 *39:10 0
7 *38:12 *212:8 0
8 sine_out[10] sine_out[8] 0
9 sine_out[3] *38:12 8.01846e-05
10 sine_out[5] sine_out[8] 0
11 sine_out[7] sine_out[8] 0
12 *35:20 *38:12 0
*RES
1 *645:X *38:12 45.6547 
2 *38:12 sine_out[8] 24.5309 
*END

*D_NET *39 0.00324636
*CONN
*P sine_out[9] O
*I *646:X O *D sg13g2_buf_1
*CAP
1 sine_out[9] 0.000540107
2 *646:X 0.000793059
3 *39:10 0.00133317
4 sine_out[10] sine_out[9] 0
5 sine_out[3] *39:10 0
6 sine_out[4] *39:10 0.000564627
7 sine_out[8] sine_out[9] 0
8 *35:20 *39:10 1.54008e-05
9 *37:10 *39:10 0
10 *38:12 *39:10 0
*RES
1 *646:X *39:10 48.5799 
2 *39:10 sine_out[9] 25.2427 
*END

*D_NET *40 0.000911809
*CONN
*I *582:D I *D sg13g2_dfrbpq_1
*I *500:Y O *D sg13g2_inv_1
*CAP
1 *582:D 0.000121126
2 *500:Y 0.000334778
3 *40:8 0.000455904
4 *582:D *572:A 0
5 *40:8 *41:8 0
6 *40:8 *216:10 0
*RES
1 *500:Y *40:8 43.5638 
2 *40:8 *582:D 41.1845 
*END

*D_NET *41 0.000831189
*CONN
*I *613:A I *D sg13g2_dlygate4sd3_1
*I *495:Y O *D sg13g2_xnor2_1
*CAP
1 *613:A 0.00015455
2 *495:Y 0.000100011
3 *41:8 0.000254561
4 *613:A *582:CLK 8.01116e-05
5 *613:A *97:27 0.000241955
6 *41:8 *216:10 0
7 *41:8 *218:14 0
8 *40:8 *41:8 0
*RES
1 *495:Y *41:8 41.0918 
2 *41:8 *613:A 41.6171 
*END

*D_NET *42 0.000393215
*CONN
*I *614:A I *D sg13g2_dlygate4sd3_1
*I *582:Q O *D sg13g2_dfrbpq_1
*CAP
1 *614:A 0.000196607
2 *582:Q 0.000196607
3 *614:A *590:A 0
4 *614:A *196:14 0
*RES
1 *582:Q *614:A 41.9982 
*END

*D_NET *43 0.000764109
*CONN
*I *615:A I *D sg13g2_dlygate4sd3_1
*I *574:Q O *D sg13g2_dfrbpq_1
*CAP
1 *615:A 0.000221284
2 *574:Q 0.000221284
3 *615:A *231:46 0.000209083
4 *615:A *245:66 0
5 *615:A *245:77 0.000112458
*RES
1 *574:Q *615:A 42.4926 
*END

*D_NET *44 0.000900599
*CONN
*I *609:A I *D sg13g2_buf_8
*I *517:B I *D sg13g2_nand3_1
*I *575:Q O *D sg13g2_dfrbpq_1
*CAP
1 *609:A 0
2 *517:B 0.000196331
3 *575:Q 0
4 *44:21 0.000133557
5 *44:4 0.000329888
6 *517:B *517:C 1.54556e-05
7 *517:B *517:A 0
8 *517:B *616:A 0
9 *517:B *239:8 0
10 *44:21 *616:A 0.000112683
11 *44:21 *52:21 0
12 *44:21 *244:12 0.000112683
*RES
1 *575:Q *44:4 20 
2 *44:4 *517:B 21.9673 
3 *44:4 *44:21 41.5965 
4 *44:21 *609:A 20 
*END

*D_NET *45 0.00202424
*CONN
*I *575:D I *D sg13g2_dfrbpq_1
*I *473:Y O *D sg13g2_xnor2_1
*CAP
1 *575:D 5.10268e-05
2 *473:Y 0.0007507
3 *45:8 0.000801727
4 *575:D *566:A 8.00842e-05
5 *45:8 *474:B1 0.000340704
6 *45:8 *47:8 0
7 *45:8 *48:19 0
8 *45:8 *183:58 0
9 *45:8 *245:10 0
10 *45:8 *245:12 0
*RES
1 *473:Y *45:8 48.2606 
2 *45:8 *575:D 40.5356 
*END

*D_NET *46 0.00106858
*CONN
*I *616:A I *D sg13g2_dlygate4sd3_1
*I *576:Q O *D sg13g2_dfrbpq_1
*CAP
1 *616:A 0.000421682
2 *576:Q 0.000421682
3 *616:A *517:C 0
4 *616:A *52:21 0.000112528
5 *616:A *239:8 0
6 *616:A *244:12 0
7 *517:B *616:A 0
8 *44:21 *616:A 0.000112683
*RES
1 *576:Q *616:A 44.5114 
*END

*D_NET *47 0.00177042
*CONN
*I *576:D I *D sg13g2_dfrbpq_1
*I *477:X O *D sg13g2_xor2_1
*CAP
1 *576:D 0
2 *477:X 0.000716793
3 *47:8 0.000716793
4 *47:8 *49:10 0.000336832
5 *47:8 *83:27 0
6 *47:8 *85:16 0
7 *47:8 *183:58 0
8 *47:8 *237:12 0
9 *45:8 *47:8 0
*RES
1 *477:X *47:8 48.755 
2 *47:8 *576:D 40 
*END

*D_NET *48 0.00123761
*CONN
*I *604:A I *D sg13g2_buf_8
*I *605:A I *D sg13g2_buf_1
*I *577:Q O *D sg13g2_dfrbpq_1
*CAP
1 *604:A 0
2 *605:A 0
3 *577:Q 0.000308869
4 *48:19 0.000140329
5 *48:6 0.000449198
6 *48:6 *566:A 0
7 *48:6 *608:A 0.000306869
8 *48:19 *566:A 0
9 *48:19 *608:A 3.23417e-05
10 *48:19 *164:12 0
11 *48:19 *164:18 0
12 *45:8 *48:19 0
*RES
1 *577:Q *48:6 23.3475 
2 *48:6 *605:A 20 
3 *48:6 *48:19 41.6583 
4 *48:19 *604:A 20 
*END

*D_NET *49 0.0018167
*CONN
*I *577:D I *D sg13g2_dfrbpq_1
*I *481:X O *D sg13g2_xor2_1
*CAP
1 *577:D 0
2 *481:X 0.000311367
3 *49:10 0.000311367
4 *49:10 *471:A 0
5 *49:10 *478:B1 0.000384968
6 *49:10 *85:16 0.000231845
7 *49:10 *86:10 0.000240318
8 *47:8 *49:10 0.000336832
*RES
1 *481:X *49:10 44.0685 
2 *49:10 *577:D 40 
*END

*D_NET *50 0.000634385
*CONN
*I *603:A I *D sg13g2_buf_1
*I *601:A I *D sg13g2_buf_2
*I *578:Q O *D sg13g2_dfrbpq_1
*CAP
1 *603:A 7.08166e-05
2 *601:A 0
3 *578:Q 0.000141936
4 *50:8 0.000212753
5 *603:A *52:21 0
6 *50:8 *229:28 0.00020888
*RES
1 *578:Q *50:8 21.751 
2 *50:8 *601:A 20 
3 *50:8 *603:A 20.9167 
*END

*D_NET *51 0.00150439
*CONN
*I *578:D I *D sg13g2_dfrbpq_1
*I *485:X O *D sg13g2_xor2_1
*CAP
1 *578:D 0
2 *485:X 0.000397898
3 *51:8 0.000397898
4 *51:8 *486:B 0.000130497
5 *51:8 *61:8 0.000288837
6 *51:8 *91:22 0
7 *51:8 *224:53 0.00028926
8 *51:8 *231:10 0
*RES
1 *485:X *51:8 45.2942 
2 *51:8 *578:D 40 
*END

*D_NET *52 0.00440418
*CONN
*I *598:A I *D sg13g2_buf_1
*I *597:A I *D sg13g2_buf_8
*I *596:A I *D sg13g2_buf_8
*I *579:Q O *D sg13g2_dfrbpq_2
*CAP
1 *598:A 0
2 *597:A 0
3 *596:A 0
4 *579:Q 0.000469498
5 *52:33 0.000338979
6 *52:25 0.000582697
7 *52:21 0.00120001
8 *52:10 0.000956297
9 *52:8 0.000469498
10 *52:8 *185:10 0
11 *52:8 *231:10 0
12 *52:21 *607:A 0
13 *52:21 *239:8 0
14 *52:21 *244:12 0
15 *52:25 *607:A 0
16 *52:25 *246:10 0.00027467
17 *52:33 *234:10 0
18 *52:33 *244:12 0
19 *52:33 *246:10 0
20 *603:A *52:21 0
21 *616:A *52:21 0.000112528
22 *3:9 *52:25 0
23 *44:21 *52:21 0
*RES
1 *579:Q *52:8 44.0582 
2 *52:8 *52:10 20 
3 *52:10 *596:A 20 
4 *52:10 *52:21 30.5575 
5 *52:21 *52:25 22.6986 
6 *52:25 *52:33 43.6359 
7 *52:33 *597:A 20 
8 *52:25 *598:A 20 
*END

*D_NET *53 0.000962379
*CONN
*I *579:D I *D sg13g2_dfrbpq_2
*I *489:X O *D sg13g2_xor2_1
*CAP
1 *579:D 0
2 *489:X 0.00028453
3 *53:10 0.00028453
4 *53:10 *489:B 0
5 *53:10 *226:12 0
6 *53:10 *231:10 0
7 *53:10 *231:22 0.00039332
*RES
1 *489:X *53:10 43.1415 
2 *53:10 *579:D 40 
*END

*D_NET *54 0.000184298
*CONN
*I *594:A I *D sg13g2_buf_8
*I *580:Q O *D sg13g2_dfrbpq_1
*CAP
1 *594:A 9.21492e-05
2 *580:Q 9.21492e-05
3 *594:A *185:18 0
4 *594:A *229:28 0
*RES
1 *580:Q *594:A 41.1639 
*END

*D_NET *55 0.000262613
*CONN
*I *580:D I *D sg13g2_dfrbpq_1
*I *492:Y O *D sg13g2_xnor2_1
*CAP
1 *580:D 6.9723e-05
2 *492:Y 6.9723e-05
3 *580:D *490:B1 0.000123167
4 *580:D *580:RESET_B 0
*RES
1 *492:Y *580:D 40.9167 
*END

*D_NET *56 0.00260816
*CONN
*I *415:A I *D sg13g2_nor2_1
*I *444:A1 I *D sg13g2_o21ai_1
*I *574:D I *D sg13g2_dfrbpq_1
*I *419:A I *D sg13g2_nor2_1
*I *474:A1 I *D sg13g2_o21ai_1
*I *409:Y O *D sg13g2_inv_2
*CAP
1 *415:A 3.06411e-05