*SPEF "ieee 1481-1999"
*DESIGN "DigitalSine"
*DATE "17:05:22 Friday December 12, 2025"
*VENDOR "The OpenROAD Project"
*PROGRAM "OpenROAD"
*VERSION "341650e72dad0dc8571822ff8c5d9c5e365327f7"
*DESIGN_FLOW "NAME_SCOPE LOCAL" "PIN_CAP NONE"
*DIVIDER /
*DELIMITER :
*BUS_DELIMITER []
*T_UNIT 1 NS
*C_UNIT 1 PF
*R_UNIT 1 OHM
*L_UNIT 1 HENRY

*NAME_MAP
*3 clk
*4 rst
*5 sign
*6 signB
*7 sine_out[0]
*8 sine_out[10]
*9 sine_out[11]
*10 sine_out[12]
*11 sine_out[13]
*12 sine_out[14]
*13 sine_out[15]
*14 sine_out[16]
*15 sine_out[17]
*16 sine_out[18]
*17 sine_out[19]
*18 sine_out[1]
*19 sine_out[20]
*20 sine_out[21]
*21 sine_out[22]
*22 sine_out[23]
*23 sine_out[24]
*24 sine_out[25]
*25 sine_out[26]
*26 sine_out[27]
*27 sine_out[28]
*28 sine_out[29]
*29 sine_out[2]
*30 sine_out[30]
*31 sine_out[31]
*32 sine_out[32]
*33 sine_out[3]
*34 sine_out[4]
*35 sine_out[5]
*36 sine_out[6]
*37 sine_out[7]
*38 sine_out[8]
*39 sine_out[9]
*40 CTRL\.P0
*41 CTRL\.P1
*42 CTRL\.S0
*43 DPATH\.SUM\.Cout0
*44 DPATH\.SUM\.fa_1\.A
*45 DPATH\.SUM\.fa_1\.S
*46 DPATH\.SUM\.fa_2\.A
*47 DPATH\.SUM\.fa_2\.S
*48 DPATH\.SUM\.fa_3\.A
*49 DPATH\.SUM\.fa_3\.S
*50 DPATH\.SUM\.fa_4\.A
*51 DPATH\.SUM\.fa_4\.S
*52 DPATH\.SUM\.fa_5\.A
*53 DPATH\.SUM\.fa_5\.S
*54 DPATH\.SUM\.fa_6\.A
*55 DPATH\.SUM\.fa_6\.S
*56 DPATH\.SUM\.ha_0\.S
*57 _000_
*58 _001_
*59 _002_
*60 _003_
*61 _004_
*62 _005_
*63 _006_
*64 _007_
*65 _008_
*66 _009_
*67 _010_
*68 _011_
*69 _012_
*70 _013_
*71 _014_
*72 _015_
*73 _016_
*74 _017_
*75 _018_
*76 _019_
*77 _020_
*78 _021_
*79 _022_
*80 _023_
*81 _024_
*82 _025_
*83 _026_
*84 _027_
*85 _028_
*86 _029_
*87 _030_
*88 _031_
*89 _032_
*90 _033_
*91 _034_
*92 _035_
*93 _036_
*94 _037_
*95 _038_
*96 _039_
*97 _040_
*98 _041_
*99 _042_
*100 _043_
*101 _044_
*102 _045_
*103 _046_
*104 _047_
*105 _048_
*106 _049_
*107 _050_
*108 _051_
*109 _052_
*110 _053_
*111 _054_
*112 _055_
*113 _056_
*114 _057_
*115 _058_
*116 _059_
*117 _060_
*118 _061_
*119 _062_
*120 _063_
*121 _064_
*122 _065_
*123 _066_
*124 _067_
*125 _068_
*126 _069_
*127 _070_
*128 _071_
*129 _072_
*130 _073_
*131 _074_
*132 _075_
*133 _076_
*134 _077_
*135 _078_
*136 _079_
*137 _080_
*138 _081_
*139 _082_
*140 _083_
*141 _084_
*142 _085_
*143 _086_
*144 _087_
*145 _088_
*146 _089_
*147 _090_
*148 _091_
*149 _092_
*150 _093_
*151 _094_
*152 _095_
*153 _096_
*154 _097_
*155 _098_
*156 _099_
*157 _100_
*158 _101_
*159 _102_
*160 _103_
*161 _104_
*162 _105_
*163 _106_
*164 _107_
*165 _108_
*166 _109_
*167 _110_
*168 _111_
*169 _112_
*170 _113_
*171 _114_
*172 _115_
*173 _116_
*174 _117_
*175 _118_
*176 _119_
*177 _120_
*178 _121_
*179 _122_
*180 _123_
*181 _124_
*182 clknet_0_clk
*183 clknet_1_0__leaf_clk
*184 clknet_1_1__leaf_clk
*185 net1
*186 net10
*187 net11
*188 net12
*189 net13
*190 net14
*191 net15
*192 net16
*193 net17
*194 net18
*195 net19
*196 net2
*197 net20
*198 net21
*199 net22
*200 net23
*201 net24
*202 net25
*203 net26
*204 net27
*205 net28
*206 net29
*207 net3
*208 net30
*209 net31
*210 net32
*211 net33
*212 net34
*213 net35
*214 net36
*215 net37
*216 net38
*217 net39
*218 net4
*219 net40
*220 net41
*221 net42
*222 net43
*223 net44
*224 net45
*225 net46
*226 net47
*227 net48
*228 net49
*229 net5
*230 net54
*231 net55
*232 net56
*233 net57
*234 net58
*235 net59
*236 net6
*237 net60
*238 net61
*239 net62
*240 net63
*241 net64
*242 net65
*243 net66
*244 net67
*245 net68
*246 net69
*247 net7
*248 net70
*249 net71
*250 net72
*251 net73
*252 net74
*253 net75
*254 net76
*255 net77
*256 net78
*257 net8
*258 net9
*259 FILLER_0_0
*260 FILLER_0_114
*261 FILLER_0_121
*262 FILLER_0_128
*263 FILLER_0_14
*264 FILLER_0_21
*265 FILLER_0_28
*266 FILLER_0_35
*267 FILLER_0_42
*268 FILLER_0_7
*269 FILLER_0_76
*270 FILLER_0_93
*271 FILLER_10_0
*272 FILLER_10_40
*273 FILLER_10_42
*274 FILLER_10_47
*275 FILLER_10_53
*276 FILLER_10_57
*277 FILLER_10_70
*278 FILLER_10_84
*279 FILLER_10_89
*280 FILLER_11_0
*281 FILLER_11_111
*282 FILLER_11_19
*283 FILLER_11_2
*284 FILLER_11_50
*285 FILLER_11_54
*286 FILLER_11_65
*287 FILLER_11_72
*288 FILLER_11_79
*289 FILLER_12_0
*290 FILLER_12_104
*291 FILLER_12_113
*292 FILLER_12_118
*293 FILLER_12_69
*294 FILLER_12_74
*295 FILLER_12_76
*296 FILLER_13_128
*297 FILLER_13_22
*298 FILLER_13_43
*299 FILLER_13_77
*300 FILLER_13_90
*301 FILLER_14_127
*302 FILLER_14_44
*303 FILLER_14_54
*304 FILLER_15_0
*305 FILLER_15_128
*306 FILLER_15_19
*307 FILLER_15_73
*308 FILLER_15_91
*309 FILLER_1_0
*310 FILLER_1_106
*311 FILLER_1_120
*312 FILLER_1_127
*313 FILLER_1_14
*314 FILLER_1_21
*315 FILLER_1_28
*316 FILLER_1_35
*317 FILLER_1_39
*318 FILLER_1_53
*319 FILLER_1_7
*320 FILLER_2_0
*321 FILLER_2_14
*322 FILLER_2_21
*323 FILLER_2_28
*324 FILLER_2_35
*325 FILLER_2_61
*326 FILLER_2_63
*327 FILLER_2_7
*328 FILLER_2_93
*329 FILLER_3_0
*330 FILLER_3_101
*331 FILLER_3_118
*332 FILLER_3_14
*333 FILLER_3_21
*334 FILLER_3_28
*335 FILLER_3_7
*336 FILLER_3_76
*337 FILLER_3_95
*338 FILLER_4_0
*339 FILLER_4_128
*340 FILLER_4_14
*341 FILLER_4_21
*342 FILLER_4_28
*343 FILLER_4_45
*344 FILLER_4_59
*345 FILLER_4_63
*346 FILLER_4_7
*347 FILLER_4_99
*348 FILLER_5_0
*349 FILLER_5_11
*350 FILLER_5_110
*351 FILLER_5_21
*352 FILLER_5_23
*353 FILLER_5_31
*354 FILLER_5_35
*355 FILLER_5_55
*356 FILLER_5_62
*357 FILLER_5_7
*358 FILLER_6_19
*359 FILLER_6_26
*360 FILLER_6_4
*361 FILLER_6_56
*362 FILLER_6_58
*363 FILLER_6_89
*364 FILLER_6_99
*365 FILLER_7_0
*366 FILLER_7_23
*367 FILLER_7_30
*368 FILLER_7_37
*369 FILLER_7_39
*370 FILLER_7_45
*371 FILLER_7_47
*372 FILLER_7_76
*373 FILLER_8_0
*374 FILLER_8_33
*375 FILLER_8_35
*376 FILLER_8_45
*377 FILLER_8_52
*378 FILLER_8_56
*379 FILLER_8_67
*380 FILLER_9_0
*381 FILLER_9_27
*382 FILLER_9_29
*383 FILLER_9_51
*384 FILLER_9_58
*385 FILLER_9_78
*386 FILLER_9_80
*387 _125_
*388 _126_
*389 _127_
*390 _128_
*391 _129_
*392 _130_
*393 _131_
*394 _132_
*395 _133_
*396 _134_
*397 _135_
*398 _136_
*399 _137_
*400 _138_
*401 _139_
*402 _140_
*403 _141_
*404 _142_
*405 _143_
*406 _144_
*407 _145_
*408 _146_
*409 _147_
*410 _148_
*411 _149_
*412 _150_
*413 _151_
*414 _152_
*415 _153_
*416 _154_
*417 _155_
*418 _156_
*419 _157_
*420 _158_
*421 _159_
*422 _160_
*423 _161_
*424 _162_
*425 _163_
*426 _164_
*427 _165_
*428 _166_
*429 _167_
*430 _168_
*431 _169_
*432 _170_
*433 _171_
*434 _172_
*435 _173_
*436 _174_
*437 _175_
*438 _176_
*439 _177_
*440 _178_
*441 _179_
*442 _180_
*443 _181_
*444 _182_
*445 _183_
*446 _184_
*447 _185_
*448 _186_
*449 _187_
*450 _188_
*451 _189_
*452 _190_
*453 _191_
*454 _192_
*455 _193_
*456 _194_
*457 _195_
*458 _196_
*459 _197_
*460 _198_
*461 _199_
*462 _200_
*463 _201_
*464 _202_
*465 _203_
*466 _204_
*467 _205_
*468 _206_
*469 _207_
*470 _208_
*471 _209_
*472 _210_
*473 _211_
*474 _212_
*475 _213_
*476 _214_
*477 _215_
*478 _216_
*479 _217_
*480 _218_
*481 _219_
*482 _220_
*483 _221_
*484 _222_
*485 _223_
*486 _224_
*487 _225_
*488 _226_
*489 _227_
*490 _228_
*491 _229_
*492 _230_
*493 _231_
*494 _232_
*495 _233_
*496 _234_
*497 _235_
*498 _236_
*499 _237_
*500 _238_
*501 _239_
*502 _240_
*503 _241_
*504 _242_
*505 _243_
*506 _244_
*507 _245_
*508 _246_
*509 _247_
*510 _248_
*511 _249_
*512 _250_
*513 _251_
*514 _252_
*515 _253_
*516 _254_
*517 _255_
*518 _256_
*519 _257_
*520 _258_
*521 _259_
*522 _260_
*523 _261_
*524 _262_
*525 _263_
*526 _264_
*527 _265_
*528 _266_
*529 _267_
*530 _268_
*531 _269_
*532 _270_
*533 _271_
*534 _272_
*535 _273_
*536 _274_
*537 _275_
*538 _276_
*539 _277_
*540 _278_
*541 _279_
*542 _280_
*543 _281_
*544 _282_
*545 _283_
*546 _284_
*547 _285_
*548 _286_
*549 _287_
*550 _288_
*551 _289_
*552 _290_
*553 _291_
*554 _292_
*555 _293_
*556 _294_
*557 _295_
*558 _296_
*559 _297_
*560 _298_
*561 _299_
*562 _300_
*563 _301_
*564 clkbuf_0_clk
*565 clkbuf_1_0__f_clk
*566 clkbuf_1_1__f_clk
*567 clkload0
*568 fanout54
*569 fanout55
*570 fanout56
*571 fanout57
*572 fanout58
*573 fanout59
*574 fanout60
*575 fanout61
*576 fanout62
*577 fanout63
*578 fanout64
*579 fanout65
*580 fanout66
*581 fanout67
*582 fanout68
*583 fanout69
*584 fanout70
*585 fanout71
*586 fanout72
*587 fanout73
*588 fanout74
*589 fanout75
*590 fanout76
*591 fanout77
*592 fanout78
*593 hold1
*594 hold10
*595 hold11
*596 hold12
*597 hold13
*598 hold2
*599 hold3
*600 hold4
*601 hold5
*602 hold6
*603 hold7
*604 hold8
*605 hold9
*606 input1
*607 output10
*608 output11
*609 output12
*610 output13
*611 output14
*612 output15
*613 output16
*614 output17
*615 output18
*616 output19
*617 output2
*618 output20
*619 output21
*620 output22
*621 output23
*622 output24
*623 output25
*624 output26
*625 output27
*626 output28
*627 output29
*628 output3
*629 output30
*630 output31
*631 output32
*632 output33
*633 output34
*634 output35
*635 output36
*636 output4
*637 output5
*638 output6
*639 output7
*640 output8
*641 output9

*PORTS
clk I
rst I
sign O
signB O
sine_out[0] O
sine_out[10] O
sine_out[11] O
sine_out[12] O
sine_out[13] O
sine_out[14] O
sine_out[15] O
sine_out[16] O
sine_out[17] O
sine_out[18] O
sine_out[19] O
sine_out[1] O
sine_out[20] O
sine_out[21] O
sine_out[22] O
sine_out[23] O
sine_out[24] O
sine_out[25] O
sine_out[26] O
sine_out[27] O
sine_out[28] O
sine_out[29] O
sine_out[2] O
sine_out[30] O
sine_out[31] O
sine_out[32] O
sine_out[3] O
sine_out[4] O
sine_out[5] O
sine_out[6] O
sine_out[7] O
sine_out[8] O
sine_out[9] O

*D_NET *3 0.00539524
*CONN
*P clk I
*I *564:A I *D sg13g2_buf_8
*CAP
1 clk 0.00192958
2 *564:A 0
3 *3:11 0.00192958
4 *3:11 *553:A 0
5 *3:11 *562:RESET_B 0.000501197
6 *3:11 *562:D 0
7 *3:11 *563:D 0.00050111
8 *3:11 *598:A 0
9 *3:11 *92:12 0
10 *3:11 *97:27 0
11 *3:11 *240:65 0.000533769
*RES
1 clk *3:11 42.6549 
2 *3:11 *564:A 20 
*END

*D_NET *4 0.00172816
*CONN
*P rst I
*I *606:A I *D sg13g2_buf_1
*CAP
1 rst 0.00075913
2 *606:A 0.00075913
3 *606:A *605:A 0.000209899
4 *606:A *628:A 0
5 *606:A *196:10 0
*RES
1 rst *606:A 48.5953 
*END

*D_NET *5 0.00254534
*CONN
*P sign O
*I *617:X O *D sg13g2_buf_1
*CAP
1 sign 0.000690039
2 *617:X 0.000690039
3 sign *572:A 0
4 sign *575:A 0
5 sign *597:A 0.000436798
6 sign *6:8 0.000728469
*RES
1 *617:X sign 48.1628 
*END

*D_NET *6 0.00522943
*CONN
*P signB O
*I *628:X O *D sg13g2_buf_1
*CAP
1 signB 0.000214543
2 *628:X 0.00203594
3 *6:8 0.00225048
4 *6:8 sine_out[32] 0
5 *6:8 *575:A 0
6 *6:8 *597:A 0
7 *6:8 *617:A 0
8 *6:8 *54:12 0
9 sign *6:8 0.000728469
*RES
1 *628:X *6:8 42.9793 
2 *6:8 signB 22.7038 
*END

*D_NET *7 0.00493238
*CONN
*P sine_out[0] O
*I *636:X O *D sg13g2_buf_1
*CAP
1 sine_out[0] 0.00246619
2 *636:X 0.00246619
3 sine_out[0] sine_out[1] 0
4 sine_out[0] *612:A 0
5 sine_out[0] *636:A 0
6 sine_out[0] *102:22 0
*RES
1 *636:X sine_out[0] 47.2435 
*END

*D_NET *8 0.00316914
*CONN
*P sine_out[10] O
*I *637:X O *D sg13g2_buf_1
*CAP
1 sine_out[10] 0.000505162
2 *637:X 0.00103978
3 *8:10 0.00154495
4 sine_out[10] sine_out[11] 0
5 sine_out[10] sine_out[9] 0
6 *8:10 sine_out[3] 7.92524e-05
7 *8:10 sine_out[7] 0
8 *8:10 *9:10 0
*RES
1 *637:X *8:10 49.8777 
2 *8:10 sine_out[10] 25.6753 
*END

*D_NET *9 0.0026492
*CONN
*P sine_out[11] O
*I *638:X O *D sg13g2_buf_1
*CAP
1 sine_out[11] 0.000461473
2 *638:X 0.000863126
3 *9:10 0.0013246
4 sine_out[11] sine_out[12] 0
5 *9:10 sine_out[4] 0
6 *9:10 sine_out[7] 0
7 *9:10 sine_out[8] 0
8 *9:10 *430:B 0
9 sine_out[10] sine_out[11] 0
10 *8:10 *9:10 0
*RES
1 *638:X *9:10 48.5799 
2 *9:10 sine_out[11] 25.2427 
*END

*D_NET *10 0.00240834
*CONN
*P sine_out[12] O
*I *639:X O *D sg13g2_buf_1
*CAP
1 sine_out[12] 0.000702063
2 *639:X 0.000446494
3 *10:10 0.00114856
4 sine_out[12] sine_out[13] 0
5 *10:10 sine_out[8] 0.00011123
6 *10:10 *430:B 0
7 *10:10 *11:8 0
8 *10:10 *39:16 0
9 *10:10 *171:69 0
10 sine_out[11] sine_out[12] 0
*RES
1 *639:X *10:10 44.7792 
2 *10:10 sine_out[12] 23.5754 
*END

*D_NET *11 0.00221475
*CONN
*P sine_out[13] O
*I *640:X O *D sg13g2_buf_1
*CAP
1 sine_out[13] 0.0007881
2 *640:X 0.000254905
3 *11:8 0.00104301
4 sine_out[13] sine_out[14] 0
5 *11:8 *70:8 0
6 *11:8 *76:42 0
7 *11:8 *171:69 0.00012874
8 sine_out[12] sine_out[13] 0
9 *10:10 *11:8 0
*RES
1 *640:X *11:8 42.8222 
2 *11:8 sine_out[13] 22.0382 
*END

*D_NET *12 0.00225216
*CONN
*P sine_out[14] O
*I *641:X O *D sg13g2_buf_1
*CAP
1 sine_out[14] 0.00082639
2 *641:X 0.00082639
3 sine_out[14] sine_out[15] 0.00059938
4 sine_out[14] *181:62 0
5 sine_out[13] sine_out[14] 0
*RES
1 *641:X sine_out[14] 29.7644 
*END

*D_NET *13 0.00230215
*CONN
*P sine_out[15] O
*I *607:X O *D sg13g2_buf_1
*CAP
1 sine_out[15] 0.000827429
2 *607:X 0.000827429
3 sine_out[15] sine_out[16] 4.79124e-05
4 sine_out[14] sine_out[15] 0.00059938
*RES
1 *607:X sine_out[15] 29.8674 
*END

*D_NET *14 0.00172438
*CONN
*P sine_out[16] O
*I *608:X O *D sg13g2_buf_1
*CAP
1 sine_out[16] 0.000838233
2 *608:X 0.000838233
3 sine_out[16] sine_out[17] 0
4 sine_out[15] sine_out[16] 4.79124e-05
*RES
1 *608:X sine_out[16] 26.541 
*END

*D_NET *15 0.00167905
*CONN
*P sine_out[17] O
*I *609:X O *D sg13g2_buf_1
*CAP
1 sine_out[17] 0.000839527
2 *609:X 0.000839527
3 sine_out[17] sine_out[18] 0
4 sine_out[17] *609:A 0
5 sine_out[16] sine_out[17] 0
*RES
1 *609:X sine_out[17] 25.6548 
*END

*D_NET *16 0.00170209
*CONN
*P sine_out[18] O
*I *610:X O *D sg13g2_buf_1
*CAP
1 sine_out[18] 0.000851043
2 *610:X 0.000851043
3 sine_out[18] sine_out[19] 0
4 sine_out[18] *175:29 0
5 sine_out[17] sine_out[18] 0
*RES
1 *610:X sine_out[18] 29.7644 
*END

*D_NET *17 0.00160089
*CONN
*P sine_out[19] O
*I *611:X O *D sg13g2_buf_1
*CAP
1 sine_out[19] 0.000800447
2 *611:X 0.000800447
3 sine_out[19] sine_out[20] 0
4 sine_out[18] sine_out[19] 0
*RES
1 *611:X sine_out[19] 29.27 
*END

*D_NET *18 0.00566678
*CONN
*P sine_out[1] O
*I *612:X O *D sg13g2_buf_1
*CAP
1 sine_out[1] 0.0024547
2 *612:X 0.0024547
3 sine_out[1] sine_out[2] 1.53846e-05
4 sine_out[1] *495:B_N 0.00027467
5 sine_out[1] *507:B 4.77699e-05
6 sine_out[1] *636:A 0
7 sine_out[1] *33:16 0
8 sine_out[1] *127:10 0.000177212
9 sine_out[1] *208:22 0.000242355
10 sine_out[0] sine_out[1] 0
*RES
1 *612:X sine_out[1] 42.9999 
*END

*D_NET *19 0.00164088
*CONN
*P sine_out[20] O
*I *613:X O *D sg13g2_buf_1
*CAP
1 sine_out[20] 0.000820441
2 *613:X 0.000820441
3 sine_out[20] sine_out[21] 0
4 sine_out[19] sine_out[20] 0
*RES
1 *613:X sine_out[20] 29.373 
*END

*D_NET *20 0.00179677
*CONN
*P sine_out[21] O
*I *614:X O *D sg13g2_buf_1
*CAP
1 sine_out[21] 0.000898385
2 *614:X 0.000898385
3 sine_out[21] sine_out[22] 0
4 sine_out[21] *30:10 0
5 sine_out[20] sine_out[21] 0
*RES
1 *614:X sine_out[21] 29.27 
*END

*D_NET *21 0.00175304
*CONN
*P sine_out[22] O
*I *615:X O *D sg13g2_buf_1
*CAP
1 sine_out[22] 0.00087652
2 *615:X 0.00087652
3 sine_out[22] sine_out[23] 0
4 sine_out[22] sine_out[24] 0
5 sine_out[22] *30:10 0
6 sine_out[22] *175:41 0
7 sine_out[21] sine_out[22] 0
*RES
1 *615:X sine_out[22] 25.8028 
*END

*D_NET *22 0.0031347
*CONN
*P sine_out[23] O
*I *616:X O *D sg13g2_buf_1
*CAP
1 sine_out[23] 0.000462282
2 *616:X 9.18899e-05
3 *22:22 0.00115771
4 *22:10 0.000787316
5 sine_out[23] sine_out[24] 0
6 *22:10 sine_out[25] 4.75166e-05
7 *22:10 sine_out[26] 1.54008e-05
8 *22:10 *189:12 0
9 *22:10 *195:16 0.000126776
10 *22:22 sine_out[25] 7.98582e-05
11 *22:22 *445:B 4.77425e-05
12 *22:22 *446:A2 8.00842e-05
13 *22:22 *448:A1 0
14 *22:22 *23:10 0.000238126
15 *22:22 *243:96 0
16 sine_out[22] sine_out[23] 0
*RES
1 *616:X *22:10 40.9167 
2 *22:10 *22:22 47.8589 
3 *22:22 sine_out[23] 25.2427 
*END

*D_NET *23 0.00237685
*CONN
*P sine_out[24] O
*I *618:X O *D sg13g2_buf_1
*CAP
1 sine_out[24] 0.000484223
2 *618:X 0.000585137
3 *23:10 0.00106936
4 sine_out[24] sine_out[25] 0
5 *23:10 sine_out[26] 0
6 *23:10 sine_out[27] 0
7 sine_out[22] sine_out[24] 0
8 sine_out[23] sine_out[24] 0
9 *22:22 *23:10 0.000238126
*RES
1 *618:X *23:10 46.6332 
2 *23:10 sine_out[24] 25.371 
*END

*D_NET *24 0.00439149
*CONN
*P sine_out[25] O
*I *619:X O *D sg13g2_buf_1
*CAP
1 sine_out[25] 0.00151119
2 *619:X 0.00151119
3 sine_out[25] sine_out[26] 0.000663921
4 sine_out[25] *426:B1 0
5 sine_out[25] *448:A1 0
6 sine_out[25] *627:A 0
7 sine_out[25] *71:45 0.00024052
8 sine_out[25] *76:14 0.000112314
9 sine_out[25] *243:81 0.000144875
10 sine_out[25] *243:96 8.01118e-05
11 sine_out[24] sine_out[25] 0
12 *22:10 sine_out[25] 4.75166e-05
13 *22:22 sine_out[25] 7.98582e-05
*RES
1 *619:X sine_out[25] 36.1607 
*END

*D_NET *25 0.00587025
*CONN
*P sine_out[26] O
*I *620:X O *D sg13g2_buf_1
*CAP
1 sine_out[26] 0.001855
2 *620:X 0.000259829
3 *25:8 0.00211482
4 sine_out[26] sine_out[27] 0
5 sine_out[26] *418:B 0
6 sine_out[26] *418:A_N 4.77425e-05
7 sine_out[26] *442:B 0.000144798
8 sine_out[26] *550:A 0
9 sine_out[26] *559:RESET_B 0
10 sine_out[26] *71:45 0
11 sine_out[26] *76:10 0.00011101
12 sine_out[26] *178:16 0
13 sine_out[26] *195:16 7.94189e-05
14 sine_out[26] *205:18 0.000499088
15 sine_out[26] *240:10 0
16 sine_out[26] *240:37 7.92265e-05
17 sine_out[26] *243:81 0
18 *25:8 *573:A 0
19 *25:8 *620:A 0
20 sine_out[25] sine_out[26] 0.000663921
21 *22:10 sine_out[26] 1.54008e-05
22 *23:10 sine_out[26] 0
*RES
1 *620:X *25:8 42.8222 
2 *25:8 sine_out[26] 35.5381 
*END

*D_NET *26 0.00471823
*CONN
*P sine_out[27] O
*I *621:X O *D sg13g2_buf_1
*CAP
1 sine_out[27] 0.00178689
2 *621:X 0.00178689
3 sine_out[27] sine_out[28] 0.000566923
4 sine_out[27] *397:B 7.99992e-05
5 sine_out[27] *437:B 0.000240712
6 sine_out[27] *443:B 0
7 sine_out[27] *543:B 0
8 sine_out[27] *162:10 0
9 sine_out[27] *178:16 0
10 sine_out[27] *197:22 0.000176484
11 sine_out[27] *233:62 0
12 sine_out[27] *233:72 8.0342e-05
13 sine_out[27] *240:10 0
14 sine_out[26] sine_out[27] 0
15 *23:10 sine_out[27] 0
*RES
1 *621:X sine_out[27] 38.5606 
*END

*D_NET *27 0.00564251
*CONN
*P sine_out[28] O
*I *622:X O *D sg13g2_buf_1
*CAP
1 sine_out[28] 0.00187018
2 *622:X 0.00187018
3 sine_out[28] sine_out[29] 4.78769e-05
4 sine_out[28] *419:A1 0
5 sine_out[28] *419:B1 0
6 sine_out[28] *543:B 0
7 sine_out[28] *580:A 0.00024154
8 sine_out[28] *581:A 0.000112656
9 sine_out[28] *622:A 0
10 sine_out[28] *162:18 0
11 sine_out[28] *199:8 0
12 sine_out[28] *200:12 0
13 sine_out[28] *233:62 8.01995e-05
14 sine_out[28] *233:72 0.000112228
15 sine_out[28] *234:27 0
16 sine_out[28] *234:44 0.000209499
17 sine_out[28] *234:55 4.77425e-05
18 sine_out[28] *240:22 0.00024154
19 sine_out[28] *240:37 6.49135e-05
20 sine_out[28] *244:12 0.000177042
21 sine_out[27] sine_out[28] 0.000566923
*RES
1 *622:X sine_out[28] 36.0743 
*END

*D_NET *28 0.00216859
*CONN
*P sine_out[29] O
*I *623:X O *D sg13g2_buf_1
*CAP
1 sine_out[29] 0.00077711
2 *623:X 0.000283245
3 *28:8 0.00106035
4 sine_out[29] sine_out[30] 0
5 sine_out[29] sine_out[31] 0
6 *28:8 *438:A2 0
7 *28:8 *178:16 0
8 sine_out[28] sine_out[29] 4.78769e-05
*RES
1 *623:X *28:8 42.575 
2 *28:8 sine_out[29] 28.6382 
*END

*D_NET *29 0.00689012
*CONN
*P sine_out[2] O
*I *624:X O *D sg13g2_buf_1
*CAP
1 sine_out[2] 0.00247084
2 *624:X 0.00247084
3 sine_out[2] sine_out[3] 0
4 sine_out[2] *490:B 0
5 sine_out[2] *495:A 4.79124e-05
6 sine_out[2] *495:B_N 0.000112507
7 sine_out[2] *497:A1 0
8 sine_out[2] *507:B 4.77699e-05
9 sine_out[2] *524:B 4.7885e-05
10 sine_out[2] *527:A 0.000145105
11 sine_out[2] *527:B 4.77347e-05
12 sine_out[2] *529:A1 7.87728e-05
13 sine_out[2] *636:A 0.000111827
14 sine_out[2] *33:16 0.000242326
15 sine_out[2] *37:14 0.000696723
16 sine_out[2] *115:8 0
17 sine_out[2] *115:16 0
18 sine_out[2] *117:12 0.000177299
19 sine_out[2] *127:10 0.000177184
20 sine_out[2] *153:24 0
21 sine_out[2] *208:22 0
22 sine_out[2] *241:39 0
23 sine_out[2] *242:14 0
24 sine_out[1] sine_out[2] 1.53846e-05
*RES
1 *624:X sine_out[2] 44.2159 
*END

*D_NET *30 0.00402833
*CONN
*P sine_out[30] O
*I *625:X O *D sg13g2_buf_1
*CAP
1 sine_out[30] 0.00111448
2 *625:X 0.00081184
3 *30:10 0.00192632
4 sine_out[30] sine_out[31] 0
5 *30:10 *614:A 0.000175693
6 *30:10 *234:63 0
7 sine_out[21] *30:10 0
8 sine_out[22] *30:10 0
9 sine_out[29] sine_out[30] 0
*RES
1 *625:X *30:10 47.1585 
2 *30:10 sine_out[30] 32.669 
*END

*D_NET *31 0.00590674
*CONN
*P sine_out[31] O
*I *626:X O *D sg13g2_buf_1
*CAP
1 sine_out[31] 0.00151301
2 *626:X 0.000510828
3 *31:8 0.00202384
4 sine_out[31] sine_out[32] 0.00108505
5 sine_out[31] *419:A1 8.01995e-05
6 sine_out[31] *234:14 0
7 sine_out[31] *239:8 0.000144842
8 sine_out[31] *239:86 0.000404267
9 sine_out[31] *245:10 0.0001447
10 *31:8 *621:A 0
11 *31:8 *32:8 0
12 *31:8 *162:10 0
13 *31:8 *244:12 0
14 *31:8 *245:10 0
15 *31:8 *245:16 0
16 sine_out[29] sine_out[31] 0
17 sine_out[30] sine_out[31] 0
*RES
1 *626:X *31:8 44.5526 
2 *31:8 sine_out[31] 33.6046 
*END

*D_NET *32 0.00604449
*CONN
*P sine_out[32] O
*I *627:X O *D sg13g2_buf_1
*CAP
1 sine_out[32] 0.00162282
2 *627:X 0.000521906
3 *32:8 0.00214472
4 sine_out[32] *572:A 0.000112684
5 sine_out[32] *597:A 0
6 sine_out[32] *245:10 0
7 *32:8 *559:CLK 0
8 *32:8 *567:A 0
9 *32:8 *620:A 0.000557301
10 *32:8 *621:A 0
11 *32:8 *244:12 0
12 sine_out[31] sine_out[32] 0.00108505
13 *6:8 sine_out[32] 0
14 *31:8 *32:8 0
*RES
1 *627:X *32:8 45.7886 
2 *32:8 sine_out[32] 38.6945 
*END

*D_NET *33 0.00610185
*CONN
*P sine_out[3] O
*I *629:X O *D sg13g2_buf_1
*CAP
1 sine_out[3] 0.00168683
2 *629:X 0.000702473
3 *33:16 0.00238931
4 sine_out[3] sine_out[4] 0
5 sine_out[3] *527:C 0
6 sine_out[3] *528:A 0
7 sine_out[3] *528:C 8.01116e-05
8 sine_out[3] *532:B1 0
9 sine_out[3] *37:14 0
10 sine_out[3] *39:16 0
11 sine_out[3] *147:10 7.98582e-05
12 sine_out[3] *151:10 0
13 sine_out[3] *229:12 0.000208704
14 sine_out[3] *237:6 0
15 sine_out[3] *237:10 0
16 sine_out[3] *242:14 0.000306639
17 *33:16 *495:A 0
18 *33:16 *495:B_N 0
19 *33:16 *208:22 0.000144958
20 *33:16 *241:16 0.000181387
21 sine_out[1] *33:16 0
22 sine_out[2] sine_out[3] 0
23 sine_out[2] *33:16 0.000242326
24 *8:10 sine_out[3] 7.92524e-05
*RES
1 *629:X *33:16 46.8804 
2 *33:16 sine_out[3] 37.1026 
*END

*D_NET *34 0.00469188
*CONN
*P sine_out[4] O
*I *630:X O *D sg13g2_buf_1
*CAP
1 sine_out[4] 0.000457619
2 *630:X 9.87708e-05
3 *34:12 0.00196256
4 *34:8 0.00160371
5 sine_out[4] sine_out[5] 0
6 sine_out[4] sine_out[6] 0
7 *34:8 *117:12 0.0003373
8 *34:8 *145:14 0.000231921
9 *34:12 *35:12 0
10 *34:12 *153:16 0
11 *34:12 *167:20 0
12 *34:12 *230:16 0
13 *34:12 *237:42 0
14 *34:12 *238:41 0
15 sine_out[3] sine_out[4] 0
16 *9:10 sine_out[4] 0
*RES
1 *630:X *34:8 41.5862 
2 *34:8 *34:12 35.4603 
3 *34:12 sine_out[4] 45.2427 
*END

*D_NET *35 0.00670806
*CONN
*P sine_out[5] O
*I *631:X O *D sg13g2_buf_1
*CAP
1 sine_out[5] 0.000403941
2 *631:X 0.000250643
3 *35:12 0.00175083
4 *35:8 0.00159754
5 sine_out[5] sine_out[6] 0
6 *35:8 *115:16 0.000334001
7 *35:8 *145:14 0
8 *35:8 *208:22 0.00075343
9 *35:8 *251:33 2.14736e-05
10 *35:8 *254:38 0
11 *35:12 *36:16 0
12 *35:12 *139:16 0
13 *35:12 *238:41 0.00125631
14 *35:12 *246:68 0.000339892
15 sine_out[4] sine_out[5] 0
16 *34:12 *35:12 0
*RES
1 *631:X *35:8 43.5638 
2 *35:8 *35:12 29.8848 
3 *35:12 sine_out[5] 44.5938 
*END

*D_NET *36 0.00403238
*CONN
*P sine_out[6] O
*I *632:X O *D sg13g2_buf_1
*CAP
1 sine_out[6] 0.000436838
2 *632:X 0
3 *36:16 0.00134017
4 *36:12 0.00157935
5 *36:6 0.000676023
6 sine_out[6] sine_out[7] 0
7 sine_out[6] sine_out[8] 0
8 *36:12 *153:16 0
9 *36:16 *235:63 0
10 sine_out[4] sine_out[6] 0
11 sine_out[5] sine_out[6] 0
12 *35:12 *36:16 0
*RES
1 *632:X *36:6 40 
2 *36:6 *36:12 46.283 
3 *36:12 *36:16 30.0528 
4 *36:16 sine_out[6] 44.472 
*END

*D_NET *37 0.0039354
*CONN
*P sine_out[7] O
*I *633:X O *D sg13g2_buf_1
*CAP
1 sine_out[7] 0.000820054
2 *633:X 8.11203e-05
3 *37:14 0.0014497
4 *37:8 0.000710766
5 sine_out[7] sine_out[8] 0
6 *37:8 *151:10 0
7 *37:14 *39:16 0
8 *37:14 *214:14 0.000177036
9 sine_out[2] *37:14 0.000696723
10 sine_out[3] *37:14 0
11 sine_out[6] sine_out[7] 0
12 *8:10 sine_out[7] 0
13 *9:10 sine_out[7] 0
*RES
1 *633:X *37:8 40.8446 
2 *37:8 *37:14 47.0246 
3 *37:14 sine_out[7] 29.2391 
*END

*D_NET *38 0.00373587
*CONN
*P sine_out[8] O
*I *634:X O *D sg13g2_buf_1
*CAP
1 sine_out[8] 0.000776699
2 *634:X 0.000579403
3 *38:10 0.0013561
4 sine_out[8] sine_out[9] 0
5 *38:10 *39:16 0.000912435
6 *38:10 *68:12 0
7 *38:10 *214:14 0
8 *38:10 *236:14 0
9 sine_out[6] sine_out[8] 0
10 sine_out[7] sine_out[8] 0
11 *9:10 sine_out[8] 0
12 *10:10 sine_out[8] 0.00011123
*RES
1 *634:X *38:10 46.8495 
2 *38:10 sine_out[8] 25.3331 
*END

*D_NET *39 0.00376762
*CONN
*P sine_out[9] O
*I *635:X O *D sg13g2_buf_1
*CAP
1 sine_out[9] 0.000765794
2 *635:X 0.000661797
3 *39:16 0.00142759
4 *39:16 *68:12 0
5 *39:16 *171:69 0
6 sine_out[10] sine_out[9] 0
7 sine_out[3] *39:16 0
8 sine_out[8] sine_out[9] 0
9 *10:10 *39:16 0
10 *37:14 *39:16 0
11 *38:10 *39:16 0.000912435
*RES
1 *635:X *39:16 47.8074 
2 *39:16 sine_out[9] 28.4872 
*END

*D_NET *40 0.00190945
*CONN
*I *563:D I *D sg13g2_dfrbpq_1
*I *481:Y O *D sg13g2_inv_1
*CAP
1 *563:D 0.000285395
2 *481:Y 0.000313909
3 *40:8 0.000599304
4 *563:D *97:27 0
5 *563:D *256:10 0.000209729
6 *3:11 *563:D 0.00050111
*RES
1 *481:Y *40:8 42.8222 
2 *40:8 *563:D 43.3475 
*END

*D_NET *41 0.000152559
*CONN
*I *598:A I *D sg13g2_dlygate4sd3_1
*I *476:Y O *D sg13g2_xnor2_1
*CAP
1 *598:A 7.62793e-05
2 *476:Y 7.62793e-05
3 *598:A *97:27 0
4 *3:11 *598:A 0
*RES
1 *476:Y *598:A 40.9167 
*END

*D_NET *42 0.000545746
*CONN
*I *605:A I *D sg13g2_dlygate4sd3_1
*I *563:Q O *D sg13g2_dfrbpq_1
*CAP
1 *605:A 0.000167924
2 *563:Q 0.000167924
3 *605:A *628:A 0
4 *606:A *605:A 0.000209899
*RES
1 *563:Q *605:A 41.751 
*END

*D_NET *43 0.000965693
*CONN
*I *599:A I *D sg13g2_dlygate4sd3_1
*I *555:Q O *D sg13g2_dfrbpq_1
*CAP
1 *599:A 3.40718e-05
2 *555:Q 0.000448775
3 *43:8 0.000482846
4 *599:A *562:RESET_B 0
5 *599:A *97:27 0
6 *43:8 *44:10 0
7 *43:8 *183:48 0
8 *43:8 *217:8 0
9 *43:8 *219:8 0
*RES
1 *555:Q *43:8 44.5526 
2 *43:8 *599:A 40.3193 
*END

*D_NET *44 0.00151399
*CONN
*I *600:A I *D sg13g2_dlygate4sd3_1
*I *556:Q O *D sg13g2_dfrbpq_1
*CAP
1 *600:A 0.000119386
2 *556:Q 0.000549469
3 *44:10 0.000668855
4 *600:A *553:A 0.000176279
5 *600:A *562:D 0
6 *44:10 *64:8 0
7 *44:10 *217:8 0
8 *44:10 *219:8 0
9 *44:10 *255:10 0
10 *43:8 *44:10 0
*RES
1 *556:Q *44:10 45.8298 
2 *44:10 *600:A 41.1845 
*END

*D_NET *45 0.000459486
*CONN
*I *556:D I *D sg13g2_dfrbpq_1
*I *454:Y O *D sg13g2_xnor2_1
*CAP
1 *556:D 0.000229743
2 *454:Y 0.000229743
3 *556:D *556:RESET_B 0
4 *556:D *253:29 0
*RES
1 *454:Y *556:D 42.7501 
*END

*D_NET *46 0.00329659
*CONN
*I *595:A I *D sg13g2_dlygate4sd3_1
*I *586:A I *D sg13g2_buf_8
*I *557:Q O *D sg13g2_dfrbpq_2
*CAP
1 *595:A 0.000208795
2 *586:A 0
3 *557:Q 0.000194044
4 *46:16 0.000307209
5 *46:8 0.000710048
6 *595:A *475:A 4.77425e-05
7 *595:A *558:D 0.000339238
8 *595:A *231:24 0.000242071
9 *595:A *255:43 0
10 *46:8 *480:A1 0
11 *46:8 *97:10 0.000209729
12 *46:16 *56:45 0
13 *46:16 *60:8 0.000345866
14 *46:16 *256:14 0.000399574
15 *46:16 *256:20 0.000292275
*RES
1 *557:Q *46:8 22.2145 
2 *46:8 *46:16 44.1303 
3 *46:16 *586:A 20 
4 *46:8 *595:A 22.4823 
*END

*D_NET *47 0.000196063
*CONN
*I *557:D I *D sg13g2_dfrbpq_2
*I *458:X O *D sg13g2_xor2_1
*CAP
1 *557:D 9.80317e-05
2 *458:X 9.80317e-05
3 *557:D *458:B 0
4 *557:D *253:29 0
*RES
1 *458:X *557:D 41.1639 
*END

*D_NET *48 0.00288045
*CONN
*I *596:A I *D sg13g2_dlygate4sd3_1
*I *583:A I *D sg13g2_buf_8
*I *558:Q O *D sg13g2_dfrbpq_1
*CAP
1 *596:A 3.1768e-05
2 *583:A 0
3 *558:Q 0.000317202
4 *48:14 0.000465146
5 *48:6 0.000814116
6 *596:A *92:12 0
7 *48:6 *565:A 0
8 *48:6 *92:12 0.000306781
9 *48:6 *231:108 0
10 *48:14 *462:B 0.000341913
11 *48:14 *465:A2 0.00018366
12 *48:14 *91:8 0.000292413
13 *48:14 *238:14 0
14 *48:14 *248:24 0.000127455
*RES
1 *558:Q *48:6 23.1312 
2 *48:6 *48:14 46.3551 
3 *48:14 *583:A 20 
4 *48:6 *596:A 20.3193 
*END

*D_NET *49 0.000873042
*CONN
*I *558:D I *D sg13g2_dfrbpq_1
*I *462:X O *D sg13g2_xor2_1
*CAP
1 *558:D 0.000266902
2 *462:X 0.000266902
3 *558:D *462:B 0
4 *558:D *480:A1 0
5 *558:D *255:43 0
6 *595:A *558:D 0.000339238
*RES
1 *462:X *558:D 42.8949 
*END

*D_NET *50 0.000174049
*CONN
*I *582:A I *D sg13g2_buf_1
*I *559:Q O *D sg13g2_dfrbpq_1
*CAP
1 *582:A 8.70244e-05
2 *559:Q 8.70244e-05
3 *582:A *228:12 0
*RES
1 *559:Q *582:A 41.0918 
*END

*D_NET *51 0.000290774
*CONN
*I *559:D I *D sg13g2_dfrbpq_1
*I *466:X O *D sg13g2_xor2_1
*CAP
1 *559:D 0.000137673
2 *466:X 0.000137673
3 *559:D *560:D 1.54285e-05
4 *559:D *71:18 0
*RES
1 *466:X *559:D 41.5347 
*END

*D_NET *52 0.00267815
*CONN
*I *597:A I *D sg13g2_dlygate4sd3_1
*I *575:A I *D sg13g2_buf_8
*I *560:Q O *D sg13g2_dfrbpq_1
*CAP
1 *597:A 0.000561814
2 *575:A 0.000332819
3 *560:Q 0.000894633
4 *575:A *617:A 0
5 *575:A *54:12 0.000307269
6 *575:A *54:16 0.000144815
7 *575:A *228:12 0
8 *597:A *572:A 0
9 sign *575:A 0
10 sign *597:A 0.000436798
11 sine_out[32] *597:A 0
12 *6:8 *575:A 0
13 *6:8 *597:A 0
*RES
1 *560:Q *575:A 43.6977 
2 *560:Q *597:A 45.2942 
*END

*D_NET *53 0.00103438
*CONN
*I *560:D I *D sg13g2_dfrbpq_1
*I *470:X O *D sg13g2_xor2_1
*CAP
1 *560:D 0.000469435
2 *470:X 0.000469435
3 *560:D *559:RESET_B 0
4 *560:D *91:12 0
5 *560:D *91:20 8.00842e-05
6 *560:D *94:8 0
7 *560:D *240:10 0
8 *559:D *560:D 1.54285e-05
*RES
1 *470:X *560:D 45.2736 
*END

*D_NET *54 0.00707762
*CONN
*I *572:A I *D sg13g2_buf_8
*I *573:A I *D sg13g2_buf_8
*I *602:A I *D sg13g2_dlygate4sd3_1
*I *561:Q O *D sg13g2_dfrbpq_2
*CAP
1 *572:A 0.000460734
2 *573:A 0.000678079
3 *602:A 0.000486812
4 *561:Q 0.000525001
5 *54:20 0.00158228
6 *54:16 0.000987224
7 *54:12 0.000634101
8 *572:A *228:12 0
9 *572:A *245:10 0
10 *573:A *469:A1 0.000500388
11 *573:A *89:12 0
12 *573:A *90:10 0.000181608
13 *573:A *120:24 0
14 *573:A *231:129 0
15 *573:A *232:75 0
16 *573:A *238:91 0
17 *573:A *254:122 0
18 *573:A *256:83 0.00023464
19 *602:A *473:B 0
20 *602:A *560:RESET_B 0
21 *602:A *561:D 0
22 *602:A *603:A 0
23 *602:A *92:12 0
24 *602:A *93:29 0
25 *602:A *94:8 0.000241983
26 *602:A *240:55 0
27 *54:12 *617:A 0
28 *54:16 *228:12 0
29 *54:20 *559:CLK 0
30 *54:20 *567:A 0
31 sign *572:A 0
32 sine_out[32] *572:A 0.000112684
33 *575:A *54:12 0.000307269
34 *575:A *54:16 0.000144815
35 *597:A *572:A 0
36 *6:8 *54:12 0
37 *25:8 *573:A 0
*RES
1 *561:Q *54:12 45.3457 
2 *54:12 *54:16 21.1845 
3 *54:16 *54:20 25.0161 
4 *54:20 *602:A 44.9487 
5 *54:20 *573:A 48.6211 