*SPEF "ieee 1481-1999"
*DESIGN "DigitalSine"
*DATE "12:04:04 Sunday December 14, 2025"
*VENDOR "The OpenROAD Project"
*PROGRAM "OpenROAD"
*VERSION "341650e72dad0dc8571822ff8c5d9c5e365327f7"
*DESIGN_FLOW "NAME_SCOPE LOCAL" "PIN_CAP NONE"
*DIVIDER /
*DELIMITER :
*BUS_DELIMITER []
*T_UNIT 1 NS
*C_UNIT 1 PF
*R_UNIT 1 OHM
*L_UNIT 1 HENRY

*NAME_MAP
*3 clk
*4 rst
*5 sign
*6 signB
*7 sine_out[0]
*8 sine_out[10]
*9 sine_out[11]
*10 sine_out[12]
*11 sine_out[13]
*12 sine_out[14]
*13 sine_out[15]
*14 sine_out[16]
*15 sine_out[17]
*16 sine_out[18]
*17 sine_out[19]
*18 sine_out[1]
*19 sine_out[20]
*20 sine_out[21]
*21 sine_out[22]
*22 sine_out[23]
*23 sine_out[24]
*24 sine_out[25]
*25 sine_out[26]
*26 sine_out[27]
*27 sine_out[28]
*28 sine_out[29]
*29 sine_out[2]
*30 sine_out[30]
*31 sine_out[31]
*32 sine_out[32]
*33 sine_out[3]
*34 sine_out[4]
*35 sine_out[5]
*36 sine_out[6]
*37 sine_out[7]
*38 sine_out[8]
*39 sine_out[9]
*40 CTRL\.P0
*41 CTRL\.P1
*42 CTRL\.S0
*43 DPATH\.SUM\.Cout0
*44 DPATH\.SUM\.fa_1\.A
*45 DPATH\.SUM\.fa_1\.S
*46 DPATH\.SUM\.fa_2\.A
*47 DPATH\.SUM\.fa_2\.S
*48 DPATH\.SUM\.fa_3\.A
*49 DPATH\.SUM\.fa_3\.S
*50 DPATH\.SUM\.fa_4\.A
*51 DPATH\.SUM\.fa_4\.S
*52 DPATH\.SUM\.fa_5\.A
*53 DPATH\.SUM\.fa_5\.S
*54 DPATH\.SUM\.fa_6\.A
*55 DPATH\.SUM\.fa_6\.S
*56 DPATH\.SUM\.ha_0\.S
*57 _000_
*58 _001_
*59 _002_
*60 _003_
*61 _004_
*62 _005_
*63 _006_
*64 _007_
*65 _008_
*66 _009_
*67 _010_
*68 _011_
*69 _012_
*70 _013_
*71 _014_
*72 _015_
*73 _016_
*74 _017_
*75 _018_
*76 _019_
*77 _020_
*78 _021_
*79 _022_
*80 _023_
*81 _024_
*82 _025_
*83 _026_
*84 _027_
*85 _028_
*86 _029_
*87 _030_
*88 _031_
*89 _032_
*90 _033_
*91 _034_
*92 _035_
*93 _036_
*94 _037_
*95 _038_
*96 _039_
*97 _040_
*98 _041_
*99 _042_
*100 _043_
*101 _044_
*102 _045_
*103 _046_
*104 _047_
*105 _048_
*106 _049_
*107 _050_
*108 _051_
*109 _052_
*110 _053_
*111 _054_
*112 _055_
*113 _056_
*114 _057_
*115 _058_
*116 _059_
*117 _060_
*118 _061_
*119 _062_
*120 _063_
*121 _064_
*122 _065_
*123 _066_
*124 _067_
*125 _068_
*126 _069_
*127 _070_
*128 _071_
*129 _072_
*130 _073_
*131 _074_
*132 _075_
*133 _076_
*134 _077_
*135 _078_
*136 _079_
*137 _080_
*138 _081_
*139 _082_
*140 _083_
*141 _084_
*142 _085_
*143 _086_
*144 _087_
*145 _088_
*146 _089_
*147 _090_
*148 _091_
*149 _092_
*150 _093_
*151 _094_
*152 _095_
*153 _096_
*154 _097_
*155 _098_
*156 _099_
*157 _100_
*158 _101_
*159 _102_
*160 _103_
*161 _104_
*162 _105_
*163 _106_
*164 _107_
*165 _108_
*166 _109_
*167 _110_
*168 _111_
*169 _112_
*170 _113_
*171 _114_
*172 _115_
*173 _116_
*174 _117_
*175 _118_
*176 _119_
*177 _120_
*178 _121_
*179 _122_
*180 _123_
*181 _124_
*182 clknet_0_clk
*183 clknet_1_0__leaf_clk
*184 clknet_1_1__leaf_clk
*185 net1
*186 net10
*187 net11
*188 net12
*189 net13
*190 net14
*191 net15
*192 net16
*193 net17
*194 net18
*195 net19
*196 net2
*197 net20
*198 net21
*199 net22
*200 net23
*201 net24
*202 net25
*203 net26
*204 net27
*205 net28
*206 net29
*207 net3
*208 net30
*209 net31
*210 net32
*211 net33
*212 net34
*213 net35
*214 net36
*215 net37
*216 net38
*217 net39
*218 net4
*219 net5
*220 net53
*221 net54
*222 net55
*223 net56
*224 net57
*225 net58
*226 net59
*227 net6
*228 net60
*229 net61
*230 net62
*231 net63
*232 net64
*233 net65
*234 net66
*235 net67
*236 net68
*237 net69
*238 net7
*239 net70
*240 net71
*241 net72
*242 net73
*243 net74
*244 net75
*245 net76
*246 net77
*247 net78
*248 net8
*249 net9
*250 FILLER_0_0
*251 FILLER_0_103
*252 FILLER_0_110
*253 FILLER_0_117
*254 FILLER_0_121
*255 FILLER_0_14
*256 FILLER_0_21
*257 FILLER_0_28
*258 FILLER_0_35
*259 FILLER_0_42
*260 FILLER_0_7
*261 FILLER_0_82
*262 FILLER_0_89
*263 FILLER_0_96
*264 FILLER_10_41
*265 FILLER_10_43
*266 FILLER_10_73
*267 FILLER_10_79
*268 FILLER_10_81
*269 FILLER_10_87
*270 FILLER_10_97
*271 FILLER_10_99
*272 FILLER_11_106
*273 FILLER_11_122
*274 FILLER_11_21
*275 FILLER_11_23
*276 FILLER_11_67
*277 FILLER_11_69
*278 FILLER_11_82
*279 FILLER_11_84
*280 FILLER_11_90
*281 FILLER_12_0
*282 FILLER_12_11
*283 FILLER_12_121
*284 FILLER_12_25
*285 FILLER_12_40
*286 FILLER_12_55
*287 FILLER_12_65
*288 FILLER_12_67
*289 FILLER_12_76
*290 FILLER_12_78
*291 FILLER_12_84
*292 FILLER_13_121
*293 FILLER_13_38
*294 FILLER_13_40
*295 FILLER_13_58
*296 FILLER_13_84
*297 FILLER_14_0
*298 FILLER_14_121
*299 FILLER_1_0
*300 FILLER_1_110
*301 FILLER_1_117
*302 FILLER_1_14
*303 FILLER_1_21
*304 FILLER_1_28
*305 FILLER_1_32
*306 FILLER_1_47
*307 FILLER_1_65
*308 FILLER_1_7
*309 FILLER_2_12
*310 FILLER_2_16
*311 FILLER_2_20
*312 FILLER_2_27
*313 FILLER_2_41
*314 FILLER_2_5
*315 FILLER_2_55
*316 FILLER_3_14
*317 FILLER_3_7
*318 FILLER_3_76
*319 FILLER_4_0
*320 FILLER_4_29
*321 FILLER_4_87
*322 FILLER_5_0
*323 FILLER_5_53
*324 FILLER_5_80
*325 FILLER_5_94
*326 FILLER_6_30
*327 FILLER_6_54
*328 FILLER_6_63
*329 FILLER_6_77
*330 FILLER_7_103
*331 FILLER_7_109
*332 FILLER_7_17
*333 FILLER_7_61
*334 FILLER_8_0
*335 FILLER_8_120
*336 FILLER_8_122
*337 FILLER_8_25
*338 FILLER_8_27
*339 FILLER_8_65
*340 FILLER_8_92
*341 FILLER_8_94
*342 FILLER_9_33
*343 FILLER_9_35
*344 FILLER_9_46
*345 FILLER_9_57
*346 FILLER_9_59
*347 FILLER_9_65
*348 FILLER_9_95
*349 _125_
*350 _126_
*351 _127_
*352 _128_
*353 _129_
*354 _130_
*355 _131_
*356 _132_
*357 _133_
*358 _134_
*359 _135_
*360 _136_
*361 _137_
*362 _138_
*363 _139_
*364 _140_
*365 _141_
*366 _142_
*367 _143_
*368 _144_
*369 _145_
*370 _146_
*371 _147_
*372 _148_
*373 _149_
*374 _150_
*375 _151_
*376 _152_
*377 _153_
*378 _154_
*379 _155_
*380 _156_
*381 _157_
*382 _158_
*383 _159_
*384 _160_
*385 _161_
*386 _162_
*387 _163_
*388 _164_
*389 _165_
*390 _166_
*391 _167_
*392 _168_
*393 _169_
*394 _170_
*395 _171_
*396 _172_
*397 _173_
*398 _174_
*399 _175_
*400 _176_
*401 _177_
*402 _178_
*403 _179_
*404 _180_
*405 _181_
*406 _182_
*407 _183_
*408 _184_
*409 _185_
*410 _186_
*411 _187_
*412 _188_
*413 _189_
*414 _190_
*415 _191_
*416 _192_
*417 _193_
*418 _194_
*419 _195_
*420 _196_
*421 _197_
*422 _198_
*423 _199_
*424 _200_
*425 _201_
*426 _202_
*427 _203_
*428 _204_
*429 _205_
*430 _206_
*431 _207_
*432 _208_
*433 _209_
*434 _210_
*435 _211_
*436 _212_
*437 _213_
*438 _214_
*439 _215_
*440 _216_
*441 _217_
*442 _218_
*443 _219_
*444 _220_
*445 _221_
*446 _222_
*447 _223_
*448 _224_
*449 _225_
*450 _226_
*451 _227_
*452 _228_
*453 _229_
*454 _230_
*455 _231_
*456 _232_
*457 _233_
*458 _234_
*459 _235_
*460 _236_
*461 _237_
*462 _238_
*463 _239_
*464 _240_
*465 _241_
*466 _242_
*467 _243_
*468 _244_
*469 _245_
*470 _246_
*471 _247_
*472 _248_
*473 _249_
*474 _250_
*475 _251_
*476 _252_
*477 _253_
*478 _254_
*479 _255_
*480 _256_
*481 _257_
*482 _258_
*483 _259_
*484 _260_
*485 _261_
*486 _262_
*487 _263_
*488 _264_
*489 _265_
*490 _266_
*491 _267_
*492 _268_
*493 _269_
*494 _270_
*495 _271_
*496 _272_
*497 _273_
*498 _274_
*499 _275_
*500 _276_
*501 _277_
*502 _278_
*503 _279_
*504 _280_
*505 _281_
*506 _282_
*507 _283_
*508 _284_
*509 _285_
*510 _286_
*511 _287_
*512 _288_
*513 _289_
*514 _290_
*515 _291_
*516 _292_
*517 _293_
*518 _294_
*519 _295_
*520 _296_
*521 _297_
*522 _298_
*523 _299_
*524 _300_
*525 _301_
*526 clkbuf_0_clk
*527 clkbuf_1_0__f_clk
*528 clkbuf_1_1__f_clk
*529 clkload0
*530 fanout37
*531 fanout53
*532 fanout54
*533 fanout55
*534 fanout56
*535 fanout57
*536 fanout58
*537 fanout59
*538 fanout60
*539 fanout61
*540 fanout62
*541 fanout63
*542 fanout64
*543 fanout65
*544 fanout66
*545 fanout67
*546 fanout68
*547 fanout69
*548 fanout70
*549 fanout71
*550 fanout72
*551 fanout73
*552 fanout74
*553 fanout75
*554 fanout76
*555 fanout77
*556 fanout78
*557 hold1
*558 hold2
*559 input1
*560 output10
*561 output11
*562 output12
*563 output13
*564 output14
*565 output15
*566 output16
*567 output17
*568 output18
*569 output19
*570 output2
*571 output20
*572 output21
*573 output22
*574 output23
*575 output24
*576 output25
*577 output26
*578 output27
*579 output28
*580 output29
*581 output3
*582 output30
*583 output31
*584 output32
*585 output33
*586 output34
*587 output35
*588 output36
*589 output4
*590 output5
*591 output6
*592 output7
*593 output8
*594 output9

*PORTS
clk I
rst I
sign O
signB O
sine_out[0] O
sine_out[10] O
sine_out[11] O
sine_out[12] O
sine_out[13] O
sine_out[14] O
sine_out[15] O
sine_out[16] O
sine_out[17] O
sine_out[18] O
sine_out[19] O
sine_out[1] O
sine_out[20] O
sine_out[21] O
sine_out[22] O
sine_out[23] O
sine_out[24] O
sine_out[25] O
sine_out[26] O
sine_out[27] O
sine_out[28] O
sine_out[29] O
sine_out[2] O
sine_out[30] O
sine_out[31] O
sine_out[32] O
sine_out[3] O
sine_out[4] O
sine_out[5] O
sine_out[6] O
sine_out[7] O
sine_out[8] O
sine_out[9] O

*D_NET *3 0.0080069
*CONN
*P clk I
*I *526:A I *D sg13g2_buf_8
*CAP
1 clk 0.00176161
2 *526:A 0
3 *3:13 0.00134879
4 *3:9 0.0031104
5 *3:9 sine_out[31] 0
6 *3:9 sine_out[32] 0
7 *3:9 *215:16 0
8 *3:13 *427:A2 0
9 *3:13 *232:12 0
10 *3:13 *232:36 0.000972329
11 *3:13 *232:49 0.000813767
*RES
1 clk *3:9 40.0155 
2 *3:9 *3:13 34.935 
3 *3:13 *526:A 40 
*END

*D_NET *4 0.000780297
*CONN
*P rst I
*I *559:A I *D sg13g2_buf_1
*CAP
1 rst 0.00036621
2 *559:A 0.00036621
3 *559:A *185:12 4.78769e-05
4 *559:A *215:16 0
*RES
1 rst *559:A 44.1638 
*END

*D_NET *5 0.00081342
*CONN
*P sign O
*I *570:X O *D sg13g2_buf_2
*CAP
1 sign 0.00040671
2 *570:X 0.00040671
3 sign *570:A 0
*RES
1 *570:X sign 44.5938 
*END

*D_NET *6 0.000629583
*CONN
*P signB O
*I *581:X O *D sg13g2_buf_2
*CAP
1 signB 0.000314792
2 *581:X 0.000314792
*RES
1 *581:X signB 43.7286 
*END

*D_NET *7 0.00447309
*CONN
*P sine_out[0] O
*I *589:X O *D sg13g2_buf_2
*CAP
1 sine_out[0] 0.000552267
2 *589:X 0.00102243
3 *7:8 0.00157469
4 sine_out[0] sine_out[1] 0
5 *7:8 sine_out[1] 0
6 *7:8 sine_out[2] 0
7 *7:8 sine_out[3] 0
8 *7:8 *565:A 1.54556e-05
9 *7:8 *581:A 0
10 *7:8 *582:A 0
11 *7:8 *583:A 0
12 *7:8 *34:10 0.000985659
13 *7:8 *168:95 4.79124e-05
14 *7:8 *169:30 0
15 *7:8 *226:110 0.00027467
*RES
1 *589:X *7:8 30.8356 
2 *7:8 sine_out[0] 46.1414 
*END

*D_NET *8 0.00245252
*CONN
*P sine_out[10] O
*I *590:X O *D sg13g2_buf_2
*CAP
1 sine_out[10] 0.000911154
2 *590:X 0.000315107
3 *8:10 0.00122626
4 sine_out[10] sine_out[11] 0
5 sine_out[10] sine_out[9] 0
6 sine_out[10] *9:10 0
7 sine_out[10] *10:10 0
8 *8:10 sine_out[6] 0
9 *8:10 *214:24 0
*RES
1 *590:X *8:10 42.5853 
2 *8:10 sine_out[10] 25.9855 
*END

*D_NET *9 0.0027355
*CONN
*P sine_out[11] O
*I *591:X O *D sg13g2_buf_2
*CAP
1 sine_out[11] 0.000430351
2 *591:X 0.000745919
3 *9:10 0.00117627
4 sine_out[11] sine_out[12] 0
5 *9:10 sine_out[8] 0
6 *9:10 sine_out[9] 0.000241593
7 *9:10 *10:10 0.000125963
8 *9:10 *210:14 1.54008e-05
9 *9:10 *227:16 0
10 sine_out[10] sine_out[11] 0
11 sine_out[10] *9:10 0
*RES
1 *591:X *9:10 47.3748 
2 *9:10 sine_out[11] 24.8642 
*END

*D_NET *10 0.00234479
*CONN
*P sine_out[12] O
*I *592:X O *D sg13g2_buf_2
*CAP
1 sine_out[12] 0.000447461
2 *592:X 0.00065425
3 *10:10 0.00110171
4 sine_out[12] sine_out[13] 1.54008e-05
5 *10:10 sine_out[13] 0
6 *10:10 *592:A 0
7 sine_out[10] *10:10 0
8 sine_out[11] sine_out[12] 0
9 *9:10 *10:10 0.000125963
*RES
1 *592:X *10:10 46.6641 
2 *10:10 sine_out[12] 20.9247 
*END

*D_NET *11 0.00205482
*CONN
*P sine_out[13] O
*I *593:X O *D sg13g2_buf_2
*CAP
1 sine_out[13] 0.00101971
2 *593:X 0.00101971
3 sine_out[13] sine_out[14] 0
4 sine_out[12] sine_out[13] 1.54008e-05
5 *10:10 sine_out[13] 0
*RES
1 *593:X sine_out[13] 31.6004 
*END

*D_NET *12 0.00196382
*CONN
*P sine_out[14] O
*I *594:X O *D sg13g2_buf_2
*CAP
1 sine_out[14] 0.000981911
2 *594:X 0.000981911
3 sine_out[14] sine_out[15] 0
4 sine_out[14] *175:10 0
5 sine_out[13] sine_out[14] 0
*RES
1 *594:X sine_out[14] 31.3532 
*END

*D_NET *13 0.00193003
*CONN
*P sine_out[15] O
*I *560:X O *D sg13g2_buf_2
*CAP
1 sine_out[15] 0.000957312
2 *560:X 0.000957312
3 sine_out[15] sine_out[16] 0
4 sine_out[15] *561:A 1.54008e-05
5 sine_out[14] sine_out[15] 0
*RES
1 *560:X sine_out[15] 31.106 
*END

*D_NET *14 0.00216667
*CONN
*P sine_out[16] O
*I *561:X O *D sg13g2_buf_2
*CAP
1 sine_out[16] 0.00108333
2 *561:X 0.00108333
3 sine_out[16] sine_out[17] 0
4 sine_out[15] sine_out[16] 0
*RES
1 *561:X sine_out[16] 30.6528 
*END

*D_NET *15 0.00214049
*CONN
*P sine_out[17] O
*I *562:X O *D sg13g2_buf_2
*CAP
1 sine_out[17] 0.00107025
2 *562:X 0.00107025
3 sine_out[17] sine_out[18] 0
4 sine_out[16] sine_out[17] 0
*RES
1 *562:X sine_out[17] 30.7558 
*END

*D_NET *16 0.00180288
*CONN
*P sine_out[18] O
*I *563:X O *D sg13g2_buf_2
*CAP
1 sine_out[18] 0.000893737
2 *563:X 0.000893737
3 sine_out[18] sine_out[19] 0
4 sine_out[18] *563:A 1.54008e-05
5 sine_out[17] sine_out[18] 0
*RES
1 *563:X sine_out[18] 30.1306 
*END

*D_NET *17 0.00183171
*CONN
*P sine_out[19] O
*I *564:X O *D sg13g2_buf_2
*CAP
1 sine_out[19] 0.000915854
2 *564:X 0.000915854
3 sine_out[19] sine_out[20] 0
4 sine_out[19] *19:10 0
5 sine_out[19] *227:10 0
6 sine_out[18] sine_out[19] 0
*RES
1 *564:X sine_out[19] 30.4056 
*END

*D_NET *18 0.00386255
*CONN
*P sine_out[1] O
*I *565:X O *D sg13g2_buf_2
*CAP
1 sine_out[1] 0.00130052
2 *565:X 0.00130052
3 sine_out[1] sine_out[2] 0.000469553
4 sine_out[1] *581:A 0.000339726
5 sine_out[1] *203:43 0.000452227
6 sine_out[0] sine_out[1] 0
7 *7:8 sine_out[1] 0
*RES
1 *565:X sine_out[1] 34.6492 
*END

*D_NET *19 0.00214705
*CONN
*P sine_out[20] O
*I *566:X O *D sg13g2_buf_2
*CAP
1 sine_out[20] 0.000499194
2 *566:X 0.000550445
3 *19:10 0.00104964
4 sine_out[20] sine_out[21] 0
5 *19:10 sine_out[21] 0
6 *19:10 *214:16 4.77699e-05
7 *19:10 *227:10 0
8 sine_out[19] sine_out[20] 0
9 sine_out[19] *19:10 0
*RES
1 *566:X *19:10 46.0152 
2 *19:10 sine_out[20] 25.7294 
*END

*D_NET *20 0.0021249
*CONN
*P sine_out[21] O
*I *567:X O *D sg13g2_buf_2
*CAP
1 sine_out[21] 0.00105472
2 *567:X 0.00105472
3 sine_out[21] sine_out[22] 0
4 sine_out[21] sine_out[23] 0
5 sine_out[21] sine_out[24] 0
6 sine_out[21] *566:A 1.54556e-05
7 sine_out[21] *567:A 0
8 sine_out[21] *568:A 0
9 sine_out[20] sine_out[21] 0
10 *19:10 sine_out[21] 0
*RES
1 *567:X sine_out[21] 32.0948 
*END

*D_NET *21 0.00317581
*CONN
*P sine_out[22] O
*I *568:X O *D sg13g2_buf_2
*CAP
1 sine_out[22] 0.000426839
2 *568:X 0.00062108
3 *21:10 0.00104792
4 sine_out[22] sine_out[23] 0
5 *21:10 sine_out[24] 0.000791885
6 *21:10 sine_out[26] 0
7 *21:10 *22:10 0.000288087
8 sine_out[21] sine_out[22] 0
*RES
1 *568:X *21:10 47.622 
2 *21:10 sine_out[22] 24.8642 
*END

*D_NET *22 0.00317131
*CONN
*P sine_out[23] O
*I *569:X O *D sg13g2_buf_2
*CAP
1 sine_out[23] 0.000449002
2 *569:X 0.000612836
3 *22:10 0.00106184
4 sine_out[23] sine_out[24] 0
5 *22:10 sine_out[26] 0.000759543
6 *22:10 *24:10 0
7 sine_out[21] sine_out[23] 0
8 sine_out[22] sine_out[23] 0
9 *21:10 *22:10 0.000288087
*RES
1 *569:X *22:10 47.6529 
2 *22:10 sine_out[23] 20.9247 
*END

*D_NET *23 0.00305491
*CONN
*P sine_out[24] O
*I *571:X O *D sg13g2_buf_2
*CAP
1 sine_out[24] 0.000851374
2 *571:X 0.000280138
3 *23:8 0.00113151
4 sine_out[24] sine_out[25] 0
5 sine_out[24] sine_out[26] 0
6 sine_out[24] *568:A 0
7 *23:8 *189:10 0
8 *23:8 *193:10 0
9 sine_out[21] sine_out[24] 0
10 sine_out[23] sine_out[24] 0
11 *21:10 sine_out[24] 0.000791885
*RES
1 *571:X *23:8 42.8222 
2 *23:8 sine_out[24] 30.0554 
*END

*D_NET *24 0.00249647
*CONN
*P sine_out[25] O
*I *572:X O *D sg13g2_buf_2
*CAP
1 sine_out[25] 0.000329999
2 *572:X 0.000799954
3 *24:10 0.00112995
4 sine_out[25] sine_out[26] 0
5 *24:10 sine_out[26] 0
6 *24:10 sine_out[27] 0.000236562
7 *24:10 *407:B 0
8 *24:10 *26:22 0
9 sine_out[24] sine_out[25] 0
10 *22:10 *24:10 0
*RES
1 *572:X *24:10 49.4451 
2 *24:10 sine_out[25] 23.7827 
*END

*D_NET *25 0.00369012
*CONN
*P sine_out[26] O
*I *573:X O *D sg13g2_buf_2
*CAP
1 sine_out[26] 0.00134546
2 *573:X 0.00134546
3 sine_out[26] sine_out[27] 0
4 sine_out[26] *543:A 0
5 sine_out[26] *573:A 1.54008e-05
6 sine_out[26] *168:31 0
7 sine_out[26] *193:10 0
8 sine_out[26] *195:26 4.77699e-05
9 sine_out[26] *197:16 0
10 sine_out[26] *237:70 0.000176484
11 sine_out[24] sine_out[26] 0
12 sine_out[25] sine_out[26] 0
13 *21:10 sine_out[26] 0
14 *22:10 sine_out[26] 0.000759543
15 *24:10 sine_out[26] 0
*RES
1 *573:X sine_out[26] 34.8084 
*END

*D_NET *26 0.00481154
*CONN
*P sine_out[27] O
*I *574:X O *D sg13g2_buf_2
*CAP
1 sine_out[27] 0.000462159
2 *574:X 0.000156565
3 *26:22 0.00139286
4 *26:16 0.00111466
5 *26:8 0.000340518
6 sine_out[27] sine_out[28] 0.000289056
7 *26:8 *202:12 0
8 *26:8 *235:12 0.000175886
9 *26:16 *413:A1 7.30101e-05
10 *26:16 *30:22 7.30101e-05
11 *26:16 *76:44 0
12 *26:16 *223:113 0
13 *26:22 sine_out[29] 4.76977e-05
14 *26:22 sine_out[30] 0
15 *26:22 *407:B 0
16 *26:22 *413:A1 4.68833e-05
17 *26:22 *204:18 0.00040267
18 sine_out[26] sine_out[27] 0
19 *24:10 sine_out[27] 0.000236562
20 *24:10 *26:22 0
*RES
1 *574:X *26:8 41.4008 
2 *26:8 *26:16 41.751 
3 *26:16 *26:22 49.6202 
4 *26:22 sine_out[27] 25.8942 
*END

*D_NET *27 0.00468414
*CONN
*P sine_out[28] O
*I *575:X O *D sg13g2_buf_2
*CAP
1 sine_out[28] 0.00056117
2 *575:X 0.0013369
3 *27:8 0.00189807
4 sine_out[28] sine_out[29] 0
5 *27:8 sine_out[30] 0
6 *27:8 sine_out[31] 0
7 *27:8 *408:A1 0
8 *27:8 *410:A2 0.00059894
9 *27:8 *202:12 0
10 sine_out[27] sine_out[28] 0.000289056
*RES
1 *575:X *27:8 33.0295 
2 *27:8 sine_out[28] 46.6667 
*END

*D_NET *28 0.00402757
*CONN
*P sine_out[29] O
*I *576:X O *D sg13g2_buf_2
*CAP
1 sine_out[29] 0.00033581
2 *576:X 0.000140665
3 *28:12 0.00159415
4 *28:8 0.00139901
5 sine_out[29] sine_out[30] 0
6 *28:8 *72:10 0
7 *28:8 *199:10 0
8 *28:8 *202:12 0.000233569
9 *28:8 *226:10 0
10 *28:12 *198:16 0
11 *28:12 *223:113 0
12 *28:12 *225:47 0
13 *28:12 *235:120 0.000276662
14 sine_out[28] sine_out[29] 0
15 *26:22 sine_out[29] 4.76977e-05
*RES
1 *576:X *28:8 41.5862 
2 *28:8 *28:12 34.1625 
3 *28:12 sine_out[29] 40.9205 
*END

*D_NET *29 0.00252114
*CONN
*P sine_out[2] O
*I *577:X O *D sg13g2_buf_2
*CAP
1 sine_out[2] 0.0010258
2 *577:X 0.0010258
3 sine_out[2] sine_out[3] 0
4 sine_out[2] *34:10 0
5 sine_out[1] sine_out[2] 0.000469553
6 *7:8 sine_out[2] 0
*RES
1 *577:X sine_out[2] 30.5086 
*END

*D_NET *30 0.00625751
*CONN
*P sine_out[30] O
*I *578:X O *D sg13g2_buf_2
*CAP
1 sine_out[30] 0.00129065
2 *578:X 0.00014756
3 *30:22 0.00188702
4 *30:10 0.000743927
5 sine_out[30] sine_out[31] 0
6 sine_out[30] *410:B1 0.000500995
7 sine_out[30] *413:A1 7.9225e-05
8 *30:10 *31:12 0
9 *30:10 *201:10 8.00842e-05
10 *30:10 *205:12 0
11 *30:10 *235:26 0.000288087
12 *30:22 *374:B 4.77425e-05
13 *30:22 *388:A1 0.00011201
14 *30:22 *413:A2 1.55212e-05
15 *30:22 *79:69 0.000386268
16 *30:22 *173:8 0.00011101
17 *30:22 *204:18 0.000494399
18 *30:22 *223:8 0
19 sine_out[29] sine_out[30] 0
20 *26:16 *30:22 7.30101e-05
21 *26:22 sine_out[30] 0
22 *27:8 sine_out[30] 0
*RES
1 *578:X *30:10 41.8746 
2 *30:10 *30:22 46.4375 
3 *30:22 sine_out[30] 33.5683 
*END

*D_NET *31 0.00685343
*CONN
*P sine_out[31] O
*I *579:X O *D sg13g2_buf_2
*CAP
1 sine_out[31] 0.00166518
2 *579:X 0.000661676
3 *31:12 0.00232686
4 sine_out[31] sine_out[32] 0.00189413
5 sine_out[31] *202:12 0
6 *31:12 *579:A 0
7 *31:12 *32:10 0
8 *31:12 *199:10 0
9 *31:12 *201:10 0
10 *31:12 *226:10 0
11 *31:12 *237:50 0.000305573
12 sine_out[30] sine_out[31] 0
13 *3:9 sine_out[31] 0
14 *27:8 sine_out[31] 0
15 *30:10 *31:12 0
*RES
1 *579:X *31:12 46.798 
2 *31:12 sine_out[31] 37.492 
*END

*D_NET *32 0.00752681
*CONN
*P sine_out[32] O
*I *580:X O *D sg13g2_buf_2
*CAP
1 sine_out[32] 0.00123292
2 *580:X 0.000611909
3 *32:10 0.00184483
4 *32:10 *408:A1 0
5 *32:10 *410:A2 0
6 *32:10 *201:10 0.001023
7 *32:10 *206:10 0.000920013
8 *32:10 *235:26 0
9 sine_out[31] sine_out[32] 0.00189413
10 *3:9 sine_out[32] 0
11 *31:12 *32:10 0
*RES
1 *580:X *32:10 48.3327 
2 *32:10 sine_out[32] 35.4629 
*END

*D_NET *33 0.00330698
*CONN
*P sine_out[3] O
*I *582:X O *D sg13g2_buf_2
*CAP
1 sine_out[3] 0.00111307
2 *582:X 0.00111307
3 sine_out[3] sine_out[4] 0
4 sine_out[3] sine_out[5] 0
5 sine_out[3] *582:A 1.54282e-05
6 sine_out[3] *583:A 0
7 sine_out[3] *586:A 0
8 sine_out[3] *34:10 0.000595863
9 sine_out[3] *35:10 0.000469553
10 sine_out[3] *66:54 0
11 sine_out[2] sine_out[3] 0
12 *7:8 sine_out[3] 0
*RES
1 *582:X sine_out[3] 29.9592 
*END

*D_NET *34 0.00352179
*CONN
*P sine_out[4] O
*I *583:X O *D sg13g2_buf_2
*CAP
1 sine_out[4] 0.000275073
2 *583:X 0.000695058
3 *34:10 0.000970131
4 sine_out[4] sine_out[5] 0
5 *34:10 *583:A 0
6 sine_out[2] *34:10 0
7 sine_out[3] sine_out[4] 0
8 sine_out[3] *34:10 0.000595863
9 *7:8 *34:10 0.000985659
*RES
1 *583:X *34:10 48.3636 
2 *34:10 sine_out[4] 23.1338 
*END

*D_NET *35 0.00240821
*CONN
*P sine_out[5] O
*I *584:X O *D sg13g2_buf_2
*CAP
1 sine_out[5] 0.000312195
2 *584:X 0.000657135
3 *35:10 0.00096933
4 sine_out[5] sine_out[6] 0
5 *35:10 sine_out[6] 0
6 *35:10 *37:10 0
7 sine_out[3] sine_out[5] 0
8 sine_out[3] *35:10 0.000469553
9 sine_out[4] sine_out[5] 0
*RES
1 *584:X *35:10 46.0206 
2 *35:10 sine_out[5] 20.801 
*END

*D_NET *36 0.00300374
*CONN
*P sine_out[6] O
*I *585:X O *D sg13g2_buf_2
*CAP
1 sine_out[6] 0.00117859
2 *585:X 0.00117859
3 sine_out[6] sine_out[7] 0
4 sine_out[6] sine_out[8] 0
5 sine_out[6] *586:A 0
6 sine_out[6] *590:A 0
7 sine_out[6] *37:10 0
8 sine_out[6] *39:10 0.000566333
9 sine_out[6] *214:24 8.02269e-05
10 sine_out[5] sine_out[6] 0
11 *8:10 sine_out[6] 0
12 *35:10 sine_out[6] 0
*RES
1 *585:X sine_out[6] 30.0366 
*END

*D_NET *37 0.00211
*CONN
*P sine_out[7] O
*I *586:X O *D sg13g2_buf_2
*CAP
1 sine_out[7] 0.00044786
2 *586:X 0.000607141
3 *37:10 0.001055
4 sine_out[7] sine_out[8] 0
5 *37:10 *39:10 0
6 sine_out[6] sine_out[7] 0
7 sine_out[6] *37:10 0
8 *35:10 *37:10 0
*RES
1 *586:X *37:10 46.9113 
2 *37:10 sine_out[7] 25.0805 
*END

*D_NET *38 0.00274336
*CONN
*P sine_out[8] O
*I *587:X O *D sg13g2_buf_2
*CAP
1 sine_out[8] 0.00122985
2 *587:X 0.00122985
3 sine_out[8] sine_out[9] 7.89079e-05
4 sine_out[8] *585:A 0
5 sine_out[8] *590:A 0
6 sine_out[8] *210:14 0.000204755
7 sine_out[6] sine_out[8] 0
8 sine_out[7] sine_out[8] 0
9 *9:10 sine_out[8] 0
*RES
1 *587:X sine_out[8] 32.8364 
*END

*D_NET *39 0.00320072
*CONN
*P sine_out[9] O
*I *588:X O *D sg13g2_buf_2
*CAP
1 sine_out[9] 0.000591316
2 *588:X 0.000565624
3 *39:10 0.00115694
4 sine_out[10] sine_out[9] 0
5 sine_out[6] *39:10 0.000566333
6 sine_out[8] sine_out[9] 7.89079e-05
7 *9:10 sine_out[9] 0.000241593
8 *37:10 *39:10 0
*RES
1 *588:X *39:10 46.1079 
2 *39:10 sine_out[9] 26.8315 
*END

*D_NET *40 0.000164523
*CONN
*I *525:D I *D sg13g2_dfrbpq_1
*I *443:Y O *D sg13g2_inv_1
*CAP
1 *525:D 0
2 *443:Y 8.22617e-05
3 *40:8 8.22617e-05
4 *40:8 *65:10 0
5 *40:8 *203:18 0
*RES
1 *443:Y *40:8 40.8446 
2 *40:8 *525:D 40 
*END

*D_NET *41 0.00116037
*CONN
*I *524:D I *D sg13g2_dfrbpq_1
*I *438:Y O *D sg13g2_xnor2_1
*CAP
1 *524:D 0.000208363
2 *438:Y 0.000118642
3 *41:8 0.000327005
4 *524:D *406:B 0.000273023
5 *524:D *65:10 0
6 *41:8 *226:73 0.000233333
*RES
1 *438:Y *41:8 41.339 
2 *41:8 *524:D 42.0497 
*END

*D_NET *42 0.000390818
*CONN
*I *533:A I *D sg13g2_buf_8
*I *525:Q O *D sg13g2_dfrbpq_1
*CAP
1 *533:A 0.000195409
2 *525:Q 0.000195409
3 *533:A *56:6 0
4 *533:A *226:73 0
*RES
1 *525:Q *533:A 41.9102 
*END

*D_NET *43 0.000415568
*CONN
*I *558:A I *D sg13g2_dlygate4sd3_1
*I *517:Q O *D sg13g2_dfrbpq_1
*CAP
1 *558:A 0.000207784
2 *517:Q 0.000207784
3 *558:A *552:A 0
4 *558:A *556:A 0
5 *558:A *156:10 0
6 *558:A *245:6 0
*RES
1 *517:Q *558:A 41.9673 
*END

*D_NET *44 0.000485014
*CONN
*I *554:A I *D sg13g2_buf_8
*I *518:Q O *D sg13g2_dfrbpq_1
*CAP
1 *554:A 0.000242507
2 *518:Q 0.000242507
3 *554:A *416:A 0
4 *554:A *517:RESET_B 0
5 *554:A *183:55 0
*RES
1 *518:Q *554:A 42.5647 
*END

*D_NET *45 0.00205781
*CONN
*I *518:D I *D sg13g2_dfrbpq_1
*I *416:Y O *D sg13g2_xnor2_1
*CAP
1 *518:D 0.000441259
2 *416:Y 0.000587647
3 *45:8 0.00102891
4 *518:D *515:A 0
5 *518:D *518:RESET_B 0
6 *518:D *215:28 0
7 *518:D *215:39 0
8 *45:8 *60:8 0
9 *45:8 *215:22 0
10 *45:8 *215:28 0
11 *45:8 *215:82 0
*RES
1 *416:Y *45:8 46.283 
2 *45:8 *518:D 44.429 
*END

*D_NET *46 0.000910243
*CONN
*I *551:A I *D sg13g2_buf_8
*I *519:Q O *D sg13g2_dfrbpq_1
*CAP
1 *551:A 0.000350637
2 *519:Q 0.000350637
3 *551:A *422:B 0
4 *551:A *423:B 0
5 *551:A *221:12 0
6 *551:A *240:14 0.000208968
*RES
1 *519:Q *551:A 43.6977 
*END

*D_NET *47 0.0012103
*CONN
*I *519:D I *D sg13g2_dfrbpq_1
*I *420:X O *D sg13g2_xor2_1
*CAP
1 *519:D 0.000264626
2 *420:X 0.00011891
3 *47:8 0.000383536
4 *519:D *418:A 0
5 *519:D *419:B 4.77425e-05
6 *519:D *84:10 0
7 *519:D *242:25 0
8 *47:8 *60:8 0.000395482
9 *47:8 *215:20 0
*RES
1 *420:X *47:8 41.8334 
2 *47:8 *519:D 42.4823 
*END

*D_NET *48 0.000184298
*CONN
*I *549:A I *D sg13g2_buf_8
*I *520:Q O *D sg13g2_dfrbpq_1
*CAP
1 *549:A 9.21492e-05
2 *520:Q 9.21492e-05
3 *549:A *521:D 0
*RES
1 *520:Q *549:A 41.1639 
*END

*D_NET *49 0.000937045
*CONN
*I *520:D I *D sg13g2_dfrbpq_1
*I *424:X O *D sg13g2_xor2_1
*CAP
1 *520:D 0
2 *424:X 0.000174634
3 *49:10 0.000174634
4 *49:10 *420:A 0.000176511
5 *49:10 *421:A2 0.000176626
6 *49:10 *60:8 0.00023464
7 *49:10 *215:20 0
*RES
1 *424:X *49:10 42.2763 
2 *49:10 *520:D 40 
*END

*D_NET *50 0.000790267
*CONN
*I *547:A I *D sg13g2_buf_2
*I *521:Q O *D sg13g2_dfrbpq_1
*CAP
1 *547:A 0.000181887
2 *521:Q 0.000213247
3 *50:8 0.000395134
4 *547:A *512:A 0
5 *547:A *541:A 0
6 *547:A *185:12 0
7 *547:A *231:6 0
8 *547:A *232:6 0
9 *547:A *232:36 0
10 *50:8 *52:20 0
*RES
1 *521:Q *50:8 42.0806 
2 *50:8 *547:A 41.5291 
*END

*D_NET *51 0.000932743
*CONN
*I *521:D I *D sg13g2_dfrbpq_1
*I *428:X O *D sg13g2_xor2_1
*CAP
1 *521:D 0.000280768
2 *428:X 0.000280768
3 *521:D *425:A 0.000274182
4 *521:D *236:18 9.7025e-05
5 *549:A *521:D 0
*RES
1 *428:X *521:D 43.0797 
*END

*D_NET *52 0.00396196
*CONN
*I *539:A I *D sg13g2_buf_1
*I *542:A I *D sg13g2_buf_1
*I *522:Q O *D sg13g2_dfrbpq_1
*CAP
1 *539:A 0
2 *542:A 0
3 *522:Q 0.000555195
4 *52:20 0.00042488
5 *52:10 0.000980075
6 *52:10 *185:12 0.0003056
7 *52:10 *185:25 4.77425e-05
8 *52:10 *215:16 0.000564417
9 *52:10 *229:14 0
10 *52:20 *512:A 4.75166e-05
11 *52:20 *185:12 0.000112684
12 *52:20 *215:16 0.000667031
13 *52:20 *215:18 7.51285e-05
14 *52:20 *232:6 0
15 *52:20 *232:12 0
16 *52:20 *237:14 0.000181695
17 *50:8 *52:20 0
*RES
1 *522:Q *52:10 25.9946 
2 *52:10 *52:20 45.6856 
3 *52:20 *542:A 20 
4 *52:10 *539:A 20 
*END

*D_NET *53 0.00232696
*CONN
*I *522:D I *D sg13g2_dfrbpq_1
*I *432:X O *D sg13g2_xor2_1
*CAP
1 *522:D 0.000207127
2 *432:X 0.000366206
3 *53:14 0.000573333
4 *522:D *523:D 0.000304523
5 *522:D *236:18 0.000369206
6 *53:14 *93:16 0.000506567
*RES
1 *432:X *53:14 44.5526 
2 *53:14 *522:D 42.4823 
*END

*D_NET *54 0.00214143
*CONN
*I *536:A I *D sg13g2_buf_8
*I *537:A I *D sg13g2_buf_8
*I *523:Q O *D sg13g2_dfrbpq_2
*CAP
1 *536:A 0.000642117
2 *537:A 0
3 *523:Q 0.000167512
4 *54:8 0.000809628
5 *536:A *399:A 6.99179e-05
6 *536:A *540:A 0
7 *536:A *199:10 0.000209899
8 *536:A *226:8 0
9 *536:A *229:14 0
10 *536:A *231:6 0
11 *536:A *235:12 0
12 *54:8 *540:A 0
13 *54:8 *229:14 0.000242355
*RES
1 *523:Q *54:8 21.9673 
2 *54:8 *537:A 20 
3 *54:8 *536:A 26.6332 
*END

*D_NET *55 0.00115156
*CONN
*I *523:D I *D sg13g2_dfrbpq_2
*I *435:Y O *D sg13g2_xnor2_1
*CAP
1 *523:D 0.000423518
2 *435:Y 0.000423518
3 *523:D *514:A 0
4 *523:D *236:18 0
5 *522:D *523:D 0.000304523
*RES
1 *435:Y *523:D 43.7801 
*END

*D_NET *56 0.00842003
*CONN
*I *387:A1 I *D sg13g2_o21ai_1
*I *362:A I *D sg13g2_nor2_1
*I *358:A I *D sg13g2_nor2_1
*I *417:A1 I *D sg13g2_o21ai_1
*I *517:D I *D sg13g2_dfrbpq_1
*I *352:Y O *D sg13g2_inv_2
*CAP
1 *387:A1 3.99039e-05
2 *362:A 0
3 *358:A 0
4 *417:A1 0
5 *517:D 0.000256326
6 *352:Y 0.000199293
7 *56:68 0.000327274
8 *56:60 0.000497794
9 *56:53 0.000229257
10 *56:45 0.00141491
11 *56:37 0.00112339
12 *56:23 0.000471611
13 *56:6 0.000858873
14 *387:A1 *159:58 7.19987e-05
15 *517:D *414:A 0.000305222
16 *517:D *222:50 4.76977e-05
17 *56:6 *112:10 0
18 *56:23 *82:21 0.000179352
19 *56:23 *122:14 4.77425e-05
20 *56:23 *245:10 0
21 *56:23 *245:12 0
22 *56:23 *247:57 0
23 *56:37 *234:38 0
24 *56:37 *246:10 0.000181279
25 *56:45 *356:B 0.000272976
26 *56:45 *453:B1 0.00011101
27 *56:45 *456:A2 0
28 *56:45 *487:B1 0.000208941
29 *56:45 *488:B 0
30 *56:45 *503:A 0
31 *56:45 *102:12 0
32 *56:45 *112:10 7.9225e-05
33 *56:45 *132:18 0.000402282
34 *56:45 *132:37 8.00842e-05
35 *56:45 *166:40 8.01116e-05
36 *56:45 *179:10 0
37 *56:45 *229:38 7.9225e-05
38 *56:45 *239:81 0.000144542
39 *56:45 *247:87 0
40 *56:53 *488:B 0
41 *56:53 *159:58 0.000491519
42 *56:53 *165:18 7.48466e-05
43 *56:53 *226:28 0
44 *56:60 *159:58 0.000143351
45 *56:68 *488:A 0
46 *56:68 *66:54 0
47 *533:A *56:6 0
*RES
1 *352:Y *56:6 21.1845 
2 *56:6 *517:D 22.8325 
3 *56:6 *56:23 44.1303 
4 *56:23 *417:A1 20 
5 *352:Y *56:37 40.8446 
6 *56:37 *56:45 30.0734 
7 *56:45 *56:53 42.6471 
8 *56:53 *358:A 20 
9 *56:45 *56:60 1.1845 
10 *56:60 *56:68 42.369 
11 *56:68 *362:A 20 
12 *56:60 *387:A1 20.4815 
*END

*D_NET *57 0.00155246
*CONN
*I *517:RESET_B I *D sg13g2_dfrbpq_1
*I *353:Y O *D sg13g2_inv_1
*CAP
1 *517:RESET_B 0.000583307
2 *353:Y 0.000583307
3 *517:RESET_B *353:A 0.000111827
4 *517:RESET_B *112:10 0
5 *517:RESET_B *183:8 0
6 *517:RESET_B *183:19 0
7 *517:RESET_B *183:55 0.000274024
8 *517:RESET_B *222:62 0
9 *554:A *517:RESET_B 0
*RES
1 *353:Y *517:RESET_B 46.504 
*END

*D_NET *58 0.000393329
*CONN
*I *518:RESET_B I *D sg13g2_dfrbpq_1
*I *509:Y O *D sg13g2_inv_1
*CAP
1 *518:RESET_B 0.000188964
2 *509:Y 0.000188964
3 *518:RESET_B *557:A 0
4 *518:RESET_B *229:52 1.54008e-05
5 *518:D *518:RESET_B 0
*RES
1 *509:Y *518:RESET_B 41.9673 
*END

*D_NET *59 0.00101563
*CONN
*I *519:RESET_B I *D sg13g2_dfrbpq_1
*I *510:Y O *D sg13g2_inv_1
*CAP
1 *519:RESET_B 3.43728e-05
2 *510:Y 0.000169014
3 *59:8 0.000203386
4 *59:8 *519:CLK 0.000608855
*RES
1 *510:Y *59:8 42.8222 
2 *59:8 *519:RESET_B 40.3193 
*END

*D_NET *60 0.00309206
*CONN
*I *520:RESET_B I *D sg13g2_dfrbpq_1
*I *511:Y O *D sg13g2_inv_1
*CAP
1 *520:RESET_B 0
2 *511:Y 0.000585007
3 *60:8 0.000585007
4 *60:8 *418:B 0.000287672
5 *60:8 *519:CLK 0
6 *60:8 *215:20 0
7 *60:8 *215:82 0
8 *60:8 *221:23 0.00018211
9 *60:8 *221:25 0.000822141
10 *45:8 *60:8 0
11 *47:8 *60:8 0.000395482
12 *49:10 *60:8 0.00023464
*RES
1 *511:Y *60:8 48.2606 